McPAT (version 1.0 of Aug, 2013) is computing the target processor...
 
Warning: InstBuffer array structure cannot satisfy latency constraint.
Warning: ReorderBuffer array structure cannot satisfy throughput constraint.
Warning: ReorderBuffer array structure cannot satisfy latency constraint.
Warning: InstBuffer array structure cannot satisfy latency constraint.
Warning: ReorderBuffer array structure cannot satisfy throughput constraint.
Warning: ReorderBuffer array structure cannot satisfy latency constraint.
Warning: InstBuffer array structure cannot satisfy latency constraint.
Warning: ReorderBuffer array structure cannot satisfy throughput constraint.
Warning: ReorderBuffer array structure cannot satisfy latency constraint.
Warning: InstBuffer array structure cannot satisfy latency constraint.
Warning: ReorderBuffer array structure cannot satisfy throughput constraint.
Warning: ReorderBuffer array structure cannot satisfy latency constraint.
Warning: InstBuffer array structure cannot satisfy latency constraint.
Warning: ReorderBuffer array structure cannot satisfy throughput constraint.
Warning: ReorderBuffer array structure cannot satisfy latency constraint.
Warning: InstBuffer array structure cannot satisfy latency constraint.
Warning: ReorderBuffer array structure cannot satisfy throughput constraint.
Warning: ReorderBuffer array structure cannot satisfy latency constraint.
Warning: InstBuffer array structure cannot satisfy latency constraint.
Warning: ReorderBuffer array structure cannot satisfy throughput constraint.
Warning: ReorderBuffer array structure cannot satisfy latency constraint.
Warning: InstBuffer array structure cannot satisfy latency constraint.
Warning: ReorderBuffer array structure cannot satisfy throughput constraint.
Warning: ReorderBuffer array structure cannot satisfy latency constraint.
Warning: InstBuffer array structure cannot satisfy latency constraint.
Warning: ReorderBuffer array structure cannot satisfy throughput constraint.
Warning: ReorderBuffer array structure cannot satisfy latency constraint.
Warning: InstBuffer array structure cannot satisfy latency constraint.
Warning: ReorderBuffer array structure cannot satisfy throughput constraint.
Warning: ReorderBuffer array structure cannot satisfy latency constraint.
Warning: InstBuffer array structure cannot satisfy latency constraint.
Warning: ReorderBuffer array structure cannot satisfy throughput constraint.
Warning: ReorderBuffer array structure cannot satisfy latency constraint.
Warning: InstBuffer array structure cannot satisfy latency constraint.
Warning: ReorderBuffer array structure cannot satisfy throughput constraint.
Warning: ReorderBuffer array structure cannot satisfy latency constraint.
Warning: InstBuffer array structure cannot satisfy latency constraint.
Warning: ReorderBuffer array structure cannot satisfy throughput constraint.
Warning: ReorderBuffer array structure cannot satisfy latency constraint.
Warning: InstBuffer array structure cannot satisfy latency constraint.
Warning: ReorderBuffer array structure cannot satisfy throughput constraint.
Warning: ReorderBuffer array structure cannot satisfy latency constraint.
Warning: InstBuffer array structure cannot satisfy latency constraint.
Warning: ReorderBuffer array structure cannot satisfy throughput constraint.
Warning: ReorderBuffer array structure cannot satisfy latency constraint.
Warning: InstBuffer array structure cannot satisfy latency constraint.
Warning: ReorderBuffer array structure cannot satisfy throughput constraint.
Warning: ReorderBuffer array structure cannot satisfy latency constraint.

McPAT (version 1.0 of Aug, 2013) results  (current print level is 5)
*****************************************************************************************
  Technology 45 nm
  Using Long Channel Devices When Appropriate
  Interconnect metal projection= aggressive interconnect technology projection
  Core clock Rate(MHz) 2660

*****************************************************************************************
Processor: 
  Area = 28672.2 mm^2
  Peak Power = 3.34949e+06 W
  Total Leakage = 1335.76 W
  Peak Dynamic = 3.34816e+06 W
  Subthreshold Leakage = 1245.25 W
  Subthreshold Leakage with power gating = 533.346 W
  Gate Leakage = 90.5158 W
  Runtime Dynamic = 6406.96 W

  Total Cores: 16 cores 
  Device Type= ITRS high performance device type
    Area = 28427.6 mm^2
    Peak Dynamic = 3.34809e+06 W
    Subthreshold Leakage = 1222.67 W
    Subthreshold Leakage with power gating = 521.64 W
    Gate Leakage = 90.1258 W
    Runtime Dynamic = 6399.36 W

  Total L2s: 
  Device Type= ITRS high performance device type
    Area = 88.9093 mm^2
    Peak Dynamic = 1.26096 W
    Subthreshold Leakage = 8.07986 W
    Subthreshold Leakage with power gating = 3.6324 W
    Gate Leakage = 0.207375 W
    Runtime Dynamic = 0.348607 W

  Total L3s: 
  Device Type= ITRS high performance device type
    Area = 123.815 mm^2
    Peak Dynamic = 1.21756 W
    Subthreshold Leakage = 13.6017 W
    Subthreshold Leakage with power gating = 6.64728 W
    Gate Leakage = 0.0968273 W
    Runtime Dynamic = 0.416674 W

  Total NoCs (Network/Bus): 
  Device Type= ITRS high performance device type
    Area = 31.9601 mm^2
    Peak Dynamic = 61.2135 W
    Subthreshold Leakage = 0.894086 W
    Subthreshold Leakage with power gating = 0.335282 W
    Gate Leakage = 0.0857398 W
    Runtime Dynamic = 6.84132 W

*****************************************************************************************
Core:
      Area = 1776.72 mm^2
      Peak Dynamic = 209255 W
      Subthreshold Leakage = 76.417 W
      Subthreshold Leakage with power gating = 32.6025 W
      Gate Leakage = 5.63287 W
      Runtime Dynamic = 324.502 W

      Instruction Fetch Unit:
        Area = 47.2731 mm^2
        Peak Dynamic = 4051.42 W
        Subthreshold Leakage = 2.37932 W
        Subthreshold Leakage with power gating = 0.95452 W
        Gate Leakage = 0.23961 W
        Runtime Dynamic = 3.52483 W

          Instruction Cache:
            Area = 4.86613 mm^2
            Peak Dynamic = 0.741113 W
            Subthreshold Leakage = 0.486629 W
            Subthreshold Leakage with power gating = 0.22691 W
            Gate Leakage = 0.0421203 W
            Runtime Dynamic = 0.100611 W

          Branch Target Buffer:
            Area = 0.64954 mm^2
            Peak Dynamic = 0.177867 W
            Subthreshold Leakage = 0.0811682 W
            Subthreshold Leakage with power gating = 0.0435357 W
            Gate Leakage = 0.00272758 W
            Runtime Dynamic = 0.00237902 W

          Branch Predictor:
            Area = 0.138516 mm^2
            Peak Dynamic = 0.0597838 W
            Subthreshold Leakage = 0.0199703 W
            Subthreshold Leakage with power gating = 0.0103282 W
            Gate Leakage = 0.000757657 W
            Runtime Dynamic = 0.000816415 W

              Global Predictor:
                Area = 0.0435221 mm^2
                Peak Dynamic = 0.0168831 W
                Subthreshold Leakage = 0.00759719 W
                Subthreshold Leakage with power gating = 0.0039236 W
                Gate Leakage = 0.000278362 W
                Runtime Dynamic = 0.000242341 W

              Local Predictor:
              L1_Local Predictor:
                Area = 0.0257064 mm^2
                Peak Dynamic = 0.0142575 W
                Subthreshold Leakage = 0.00384344 W
                Subthreshold Leakage with power gating = 0.00198631 W
                Gate Leakage = 0.000154548 W
                Runtime Dynamic = 0.000209526 W

              L2_Local Predictor:
                Area = 0.0151917 mm^2
                Peak Dynamic = 0.00527447 W
                Subthreshold Leakage = 0.00181347 W
                Subthreshold Leakage with power gating = 0.000957045 W
                Gate Leakage = 8.00196e-05 W
                Runtime Dynamic = 8.0262e-05 W

              Chooser:
                Area = 0.0435221 mm^2
                Peak Dynamic = 0.0168831 W
                Subthreshold Leakage = 0.00759719 W
                Subthreshold Leakage with power gating = 0.0039236 W
                Gate Leakage = 0.000278362 W
                Runtime Dynamic = 0.000242341 W

              RAS:
                Area = 0.0105732 mm^2
                Peak Dynamic = 0.0117602 W
                Subthreshold Leakage = 0.000932505 W
                Subthreshold Leakage with power gating = 0.000494733 W
                Gate Leakage = 4.63858e-05 W
                Runtime Dynamic = 0.000122205 W

          Instruction Buffer:
            Area = 11.1802 mm^2
            Peak Dynamic = 4028.05 W
            Subthreshold Leakage = 1.03354 W
            Subthreshold Leakage with power gating = 0.389491 W
            Gate Leakage = 0.119458 W
            Runtime Dynamic = 3.39324 W

          Instruction Decoder:
            Area = 29.7278 mm^2
            Peak Dynamic = 21.9846 W
            Subthreshold Leakage = 0.442943 W
            Subthreshold Leakage with power gating = 0.166104 W
            Gate Leakage = 0.0222493 W
            Runtime Dynamic = 0.0277798 W

      Renaming Unit:
        Area = 27.8071 mm^2
        Peak Dynamic = 2556.62 W
        Subthreshold Leakage = 0.87819 W
        Subthreshold Leakage with power gating = 0.437089 W
        Gate Leakage = 0.0906085 W
        Runtime Dynamic = 3.2145 W

          Int Front End RAT:
            Area = 19.3301 mm^2
            Peak Dynamic = 2465.83 W
            Subthreshold Leakage = 0.500294 W
            Subthreshold Leakage with power gating = 0.285168 W
            Gate Leakage = 0.0323898 W
            Runtime Dynamic = 3.10974 W

          FP Front End RAT:
            Area = 0.168486 mm^2
            Peak Dynamic = 78.3725 W
            Subthreshold Leakage = 0.0437281 W
            Subthreshold Leakage with power gating = 0.024925 W
            Gate Leakage = 0.00489731 W
            Runtime Dynamic = 0.0855158 W

          Free List:
            Area = 7.5975 mm^2
            Peak Dynamic = 7.41375 W
            Subthreshold Leakage = 0.0190978 W
            Subthreshold Leakage with power gating = 0.00884518 W
            Gate Leakage = 0.00102434 W
            Runtime Dynamic = 0.0192417 W

      Load Store Unit:
        Area = 9.47562 mm^2
        Peak Dynamic = 1.87896 W
        Subthreshold Leakage = 0.886727 W
        Subthreshold Leakage with power gating = 0.394071 W
        Gate Leakage = 0.0841218 W
        Runtime Dynamic = 0.273811 W

          Data Cache:
            Area = 6.84535 mm^2
            Peak Dynamic = 1.6011 W
            Subthreshold Leakage = 0.527675 W
            Subthreshold Leakage with power gating = 0.25085 W
            Gate Leakage = 0.0279261 W
            Runtime Dynamic = 0.203958 W

          LoadQ:
            Area = 0.0836782 mm^2
            Peak Dynamic = 0.0117757 W
            Subthreshold Leakage = 0.00941961 W
            Subthreshold Leakage with power gating = 0.00536918 W
            Gate Leakage = 0.00059896 W
            Runtime Dynamic = 0.0117757 W

          StoreQ:
            Area = 0.322079 mm^2
            Peak Dynamic = 0.0290368 W
            Subthreshold Leakage = 0.0345621 W
            Subthreshold Leakage with power gating = 0.0197004 W
            Gate Leakage = 0.00329971 W
            Runtime Dynamic = 0.0580739 W

      Memory Management Unit:
        Area = 1.10051 mm^2
        Peak Dynamic = 2.66239 W
        Subthreshold Leakage = 0.372016 W
        Subthreshold Leakage with power gating = 0.150611 W
        Gate Leakage = 0.057119 W
        Runtime Dynamic = 0.0187457 W

          Itlb:
            Area = 0.301552 mm^2
            Peak Dynamic = 0.032348 W
            Subthreshold Leakage = 0.0413758 W
            Subthreshold Leakage with power gating = 0.0235842 W
            Gate Leakage = 0.00393464 W
            Runtime Dynamic = 0.00778446 W

          Dtlb:
            Area = 0.0879726 mm^2
            Peak Dynamic = 0.0103053 W
            Subthreshold Leakage = 0.0155699 W
            Subthreshold Leakage with power gating = 0.00887485 W
            Gate Leakage = 0.00088729 W
            Runtime Dynamic = 0.0109576 W

      Execution Unit:
        Area = 1686.67 mm^2
        Peak Dynamic = 202643 W
        Subthreshold Leakage = 70.0229 W
        Subthreshold Leakage with power gating = 29.962 W
        Gate Leakage = 5.03755 W
        Runtime Dynamic = 317.47 W

          Register Files:
            Area = 111.819 mm^2
            Peak Dynamic = 0.392243 W
            Subthreshold Leakage = 1.55192 W
            Subthreshold Leakage with power gating = 0.587195 W
            Gate Leakage = 0.101689 W
            Runtime Dynamic = 0.127539 W

              Integer RF:
                Area = 74.0344 mm^2
                Peak Dynamic = 0.195969 W
                Subthreshold Leakage = 1.06477 W
                Subthreshold Leakage with power gating = 0.401522 W
                Gate Leakage = 0.0700135 W
                Runtime Dynamic = 0.114008 W

              Floating Point RF:
                Area = 37.7848 mm^2
                Peak Dynamic = 0.196274 W
                Subthreshold Leakage = 0.487147 W
                Subthreshold Leakage with power gating = 0.185673 W
                Gate Leakage = 0.0316755 W
                Runtime Dynamic = 0.013531 W

          Instruction Scheduler:
            Area = 1561.2 mm^2
            Peak Dynamic = 202642 W
            Subthreshold Leakage = 59.5387 W
            Subthreshold Leakage with power gating = 26.0252 W
            Gate Leakage = 4.31521 W
            Runtime Dynamic = 315.72 W

              Instruction Window:
                Area = 242.241 mm^2
                Peak Dynamic = 491.03 W
                Subthreshold Leakage = 18.7871 W
                Subthreshold Leakage with power gating = 10.7075 W
                Gate Leakage = 1.23925 W
                Runtime Dynamic = 0.801639 W

              FP Instruction Window:
                Area = 0.328073 mm^2
                Peak Dynamic = 2.30959 W
                Subthreshold Leakage = 0.0225127 W
                Subthreshold Leakage with power gating = 0.0116864 W
                Gate Leakage = 0.00181534 W
                Runtime Dynamic = 0.0539705 W

              ROB:
                Area = 1318.63 mm^2
                Peak Dynamic = 202149 W
                Subthreshold Leakage = 40.7291 W
                Subthreshold Leakage with power gating = 15.306 W
                Gate Leakage = 3.07414 W
                Runtime Dynamic = 314.865 W

          Integer ALUs (Count: 96 ):
            Area = 7.53393 mm^2
            Peak Dynamic = 0.0292883 W
            Subthreshold Leakage = 6.43552 W
            Subthreshold Leakage with power gating = 2.41332 W
            Gate Leakage = 0.424466 W
            Runtime Dynamic = 0.132556 W

          Floating Point Units (FPUs) (Count: 2 ):
            Area = 4.6585 mm^2
            Peak Dynamic = 0.00552054 W
            Subthreshold Leakage = 0.994829 W
            Subthreshold Leakage with power gating = 0.373061 W
            Gate Leakage = 0.0656156 W
            Runtime Dynamic = 0.306462 W

          Complex ALUs (Mul/Div) (Count: 1 ):
            Area = 0.235435 mm^2
            Peak Dynamic = 0.000686789 W
            Subthreshold Leakage = 0.20111 W
            Subthreshold Leakage with power gating = 0.0754163 W
            Gate Leakage = 0.0132646 W
            Runtime Dynamic = 0.203228 W

          Results Broadcast Bus:
            Area Overhead = 0.510923 mm^2
            Peak Dynamic = 0.0353473 W
            Subthreshold Leakage = 0.985661 W
            Subthreshold Leakage with power gating = 0.369623 W
            Gate Leakage = 0.0650109 W
            Runtime Dynamic = 0.979785 W

*****************************************************************************************
Core:
      Area = 1776.72 mm^2
      Peak Dynamic = 209256 W
      Subthreshold Leakage = 76.417 W
      Subthreshold Leakage with power gating = 32.6025 W
      Gate Leakage = 5.63287 W
      Runtime Dynamic = 437.791 W

      Instruction Fetch Unit:
        Area = 47.2731 mm^2
        Peak Dynamic = 4051.79 W
        Subthreshold Leakage = 2.37932 W
        Subthreshold Leakage with power gating = 0.95452 W
        Gate Leakage = 0.23961 W
        Runtime Dynamic = 4.67994 W

          Instruction Cache:
            Area = 4.86613 mm^2
            Peak Dynamic = 0.981323 W
            Subthreshold Leakage = 0.486629 W
            Subthreshold Leakage with power gating = 0.22691 W
            Gate Leakage = 0.0421203 W
            Runtime Dynamic = 0.145805 W

          Branch Target Buffer:
            Area = 0.64954 mm^2
            Peak Dynamic = 0.177867 W
            Subthreshold Leakage = 0.0811682 W
            Subthreshold Leakage with power gating = 0.0435357 W
            Gate Leakage = 0.00272758 W
            Runtime Dynamic = 0.00315598 W

          Branch Predictor:
            Area = 0.138516 mm^2
            Peak Dynamic = 0.0597838 W
            Subthreshold Leakage = 0.0199703 W
            Subthreshold Leakage with power gating = 0.0103282 W
            Gate Leakage = 0.000757657 W
            Runtime Dynamic = 0.0010833 W

              Global Predictor:
                Area = 0.0435221 mm^2
                Peak Dynamic = 0.0168831 W
                Subthreshold Leakage = 0.00759719 W
                Subthreshold Leakage with power gating = 0.0039236 W
                Gate Leakage = 0.000278362 W
                Runtime Dynamic = 0.00032166 W

              Local Predictor:
              L1_Local Predictor:
                Area = 0.0257064 mm^2
                Peak Dynamic = 0.0142575 W
                Subthreshold Leakage = 0.00384344 W
                Subthreshold Leakage with power gating = 0.00198631 W
                Gate Leakage = 0.000154548 W
                Runtime Dynamic = 0.000278152 W

              L2_Local Predictor:
                Area = 0.0151917 mm^2
                Peak Dynamic = 0.00527447 W
                Subthreshold Leakage = 0.00181347 W
                Subthreshold Leakage with power gating = 0.000957045 W
                Gate Leakage = 8.00196e-05 W
                Runtime Dynamic = 0.000106576 W

              Chooser:
                Area = 0.0435221 mm^2
                Peak Dynamic = 0.0168831 W
                Subthreshold Leakage = 0.00759719 W
                Subthreshold Leakage with power gating = 0.0039236 W
                Gate Leakage = 0.000278362 W
                Runtime Dynamic = 0.00032166 W

              RAS:
                Area = 0.0105732 mm^2
                Peak Dynamic = 0.0117602 W
                Subthreshold Leakage = 0.000932505 W
                Subthreshold Leakage with power gating = 0.000494733 W
                Gate Leakage = 4.63858e-05 W
                Runtime Dynamic = 0.000161827 W

          Instruction Buffer:
            Area = 11.1802 mm^2
            Peak Dynamic = 4028.05 W
            Subthreshold Leakage = 1.03354 W
            Subthreshold Leakage with power gating = 0.389491 W
            Gate Leakage = 0.119458 W
            Runtime Dynamic = 4.49311 W

          Instruction Decoder:
            Area = 29.7278 mm^2
            Peak Dynamic = 21.9846 W
            Subthreshold Leakage = 0.442943 W
            Subthreshold Leakage with power gating = 0.166104 W
            Gate Leakage = 0.0222493 W
            Runtime Dynamic = 0.0367842 W

      Renaming Unit:
        Area = 27.8071 mm^2
        Peak Dynamic = 2556.62 W
        Subthreshold Leakage = 0.87819 W
        Subthreshold Leakage with power gating = 0.437089 W
        Gate Leakage = 0.0906085 W
        Runtime Dynamic = 4.22882 W

          Int Front End RAT:
            Area = 19.3301 mm^2
            Peak Dynamic = 2465.83 W
            Subthreshold Leakage = 0.500294 W
            Subthreshold Leakage with power gating = 0.285168 W
            Gate Leakage = 0.0323898 W
            Runtime Dynamic = 4.11798 W

          FP Front End RAT:
            Area = 0.168486 mm^2
            Peak Dynamic = 78.3725 W
            Subthreshold Leakage = 0.0437281 W
            Subthreshold Leakage with power gating = 0.024925 W
            Gate Leakage = 0.00489731 W
            Runtime Dynamic = 0.0855158 W

          Free List:
            Area = 7.5975 mm^2
            Peak Dynamic = 7.41375 W
            Subthreshold Leakage = 0.0190978 W
            Subthreshold Leakage with power gating = 0.00884518 W
            Gate Leakage = 0.00102434 W
            Runtime Dynamic = 0.0253147 W

      Load Store Unit:
        Area = 9.47562 mm^2
        Peak Dynamic = 2.05649 W
        Subthreshold Leakage = 0.886727 W
        Subthreshold Leakage with power gating = 0.394071 W
        Gate Leakage = 0.0841218 W
        Runtime Dynamic = 0.323575 W

          Data Cache:
            Area = 6.84535 mm^2
            Peak Dynamic = 1.70178 W
            Subthreshold Leakage = 0.527675 W
            Subthreshold Leakage with power gating = 0.25085 W
            Gate Leakage = 0.0279261 W
            Runtime Dynamic = 0.234402 W

          LoadQ:
            Area = 0.0836782 mm^2
            Peak Dynamic = 0.0150328 W
            Subthreshold Leakage = 0.00941961 W
            Subthreshold Leakage with power gating = 0.00536918 W
            Gate Leakage = 0.00059896 W
            Runtime Dynamic = 0.0150328 W

          StoreQ:
            Area = 0.322079 mm^2
            Peak Dynamic = 0.0370684 W
            Subthreshold Leakage = 0.0345621 W
            Subthreshold Leakage with power gating = 0.0197004 W
            Gate Leakage = 0.00329971 W
            Runtime Dynamic = 0.0741369 W

      Memory Management Unit:
        Area = 1.10051 mm^2
        Peak Dynamic = 2.70851 W
        Subthreshold Leakage = 0.372016 W
        Subthreshold Leakage with power gating = 0.150611 W
        Gate Leakage = 0.057119 W
        Runtime Dynamic = 0.0251725 W

          Itlb:
            Area = 0.301552 mm^2
            Peak Dynamic = 0.0428326 W
            Subthreshold Leakage = 0.0413758 W
            Subthreshold Leakage with power gating = 0.0235842 W
            Gate Leakage = 0.00393464 W
            Runtime Dynamic = 0.0112813 W

          Dtlb:
            Area = 0.0879726 mm^2
            Peak Dynamic = 0.0131557 W
            Subthreshold Leakage = 0.0155699 W
            Subthreshold Leakage with power gating = 0.00887485 W
            Gate Leakage = 0.00088729 W
            Runtime Dynamic = 0.0138876 W

      Execution Unit:
        Area = 1686.67 mm^2
        Peak Dynamic = 202643 W
        Subthreshold Leakage = 70.0229 W
        Subthreshold Leakage with power gating = 29.962 W
        Gate Leakage = 5.03755 W
        Runtime Dynamic = 428.534 W

          Register Files:
            Area = 111.819 mm^2
            Peak Dynamic = 0.428369 W
            Subthreshold Leakage = 1.55192 W
            Subthreshold Leakage with power gating = 0.587195 W
            Gate Leakage = 0.101689 W
            Runtime Dynamic = 0.16888 W

              Integer RF:
                Area = 74.0344 mm^2
                Peak Dynamic = 0.232095 W
                Subthreshold Leakage = 1.06477 W
                Subthreshold Leakage with power gating = 0.401522 W
                Gate Leakage = 0.0700135 W
                Runtime Dynamic = 0.150962 W

              Floating Point RF:
                Area = 37.7848 mm^2
                Peak Dynamic = 0.196274 W
                Subthreshold Leakage = 0.487147 W
                Subthreshold Leakage with power gating = 0.185673 W
                Gate Leakage = 0.0316755 W
                Runtime Dynamic = 0.0179173 W

          Instruction Scheduler:
            Area = 1561.2 mm^2
            Peak Dynamic = 202642 W
            Subthreshold Leakage = 59.5387 W
            Subthreshold Leakage with power gating = 26.0252 W
            Gate Leakage = 4.31521 W
            Runtime Dynamic = 426.383 W

              Instruction Window:
                Area = 242.241 mm^2
                Peak Dynamic = 491.03 W
                Subthreshold Leakage = 18.7871 W
                Subthreshold Leakage with power gating = 10.7075 W
                Gate Leakage = 1.23925 W
                Runtime Dynamic = 1.06148 W

              FP Instruction Window:
                Area = 0.328073 mm^2
                Peak Dynamic = 2.30959 W
                Subthreshold Leakage = 0.0225127 W
                Subthreshold Leakage with power gating = 0.0116864 W
                Gate Leakage = 0.00181534 W
                Runtime Dynamic = 0.0714647 W

              ROB:
                Area = 1318.63 mm^2
                Peak Dynamic = 202149 W
                Subthreshold Leakage = 40.7291 W
                Subthreshold Leakage with power gating = 15.306 W
                Gate Leakage = 3.07414 W
                Runtime Dynamic = 425.25 W

          Integer ALUs (Count: 96 ):
            Area = 7.53393 mm^2
            Peak Dynamic = 0.0390391 W
            Subthreshold Leakage = 6.43552 W
            Subthreshold Leakage with power gating = 2.41332 W
            Gate Leakage = 0.424466 W
            Runtime Dynamic = 0.143901 W

          Floating Point Units (FPUs) (Count: 2 ):
            Area = 4.6585 mm^2
            Peak Dynamic = 0.00552054 W
            Subthreshold Leakage = 0.994829 W
            Subthreshold Leakage with power gating = 0.373061 W
            Gate Leakage = 0.0656156 W
            Runtime Dynamic = 0.306462 W

          Complex ALUs (Mul/Div) (Count: 1 ):
            Area = 0.235435 mm^2
            Peak Dynamic = 0.000686789 W
            Subthreshold Leakage = 0.20111 W
            Subthreshold Leakage with power gating = 0.0754163 W
            Gate Leakage = 0.0132646 W
            Runtime Dynamic = 0.203228 W

          Results Broadcast Bus:
            Area Overhead = 0.510923 mm^2
            Peak Dynamic = 0.0415693 W
            Subthreshold Leakage = 0.985661 W
            Subthreshold Leakage with power gating = 0.369623 W
            Gate Leakage = 0.0650109 W
            Runtime Dynamic = 1.32826 W

*****************************************************************************************
Core:
      Area = 1776.72 mm^2
      Peak Dynamic = 209256 W
      Subthreshold Leakage = 76.417 W
      Subthreshold Leakage with power gating = 32.6025 W
      Gate Leakage = 5.63287 W
      Runtime Dynamic = 476.321 W

      Instruction Fetch Unit:
        Area = 47.2731 mm^2
        Peak Dynamic = 4051.92 W
        Subthreshold Leakage = 2.37932 W
        Subthreshold Leakage with power gating = 0.95452 W
        Gate Leakage = 0.23961 W
        Runtime Dynamic = 5.07272 W

          Instruction Cache:
            Area = 4.86613 mm^2
            Peak Dynamic = 1.06301 W
            Subthreshold Leakage = 0.486629 W
            Subthreshold Leakage with power gating = 0.22691 W
            Gate Leakage = 0.0421203 W
            Runtime Dynamic = 0.161152 W

          Branch Target Buffer:
            Area = 0.64954 mm^2
            Peak Dynamic = 0.177867 W
            Subthreshold Leakage = 0.0811682 W
            Subthreshold Leakage with power gating = 0.0435357 W
            Gate Leakage = 0.00272758 W
            Runtime Dynamic = 0.00342083 W

          Branch Predictor:
            Area = 0.138516 mm^2
            Peak Dynamic = 0.0597838 W
            Subthreshold Leakage = 0.0199703 W
            Subthreshold Leakage with power gating = 0.0103282 W
            Gate Leakage = 0.000757657 W
            Runtime Dynamic = 0.0011736 W

              Global Predictor:
                Area = 0.0435221 mm^2
                Peak Dynamic = 0.0168831 W
                Subthreshold Leakage = 0.00759719 W
                Subthreshold Leakage with power gating = 0.0039236 W
                Gate Leakage = 0.000278362 W
                Runtime Dynamic = 0.000348494 W

              Local Predictor:
              L1_Local Predictor:
                Area = 0.0257064 mm^2
                Peak Dynamic = 0.0142575 W
                Subthreshold Leakage = 0.00384344 W
                Subthreshold Leakage with power gating = 0.00198631 W
                Gate Leakage = 0.000154548 W
                Runtime Dynamic = 0.000301312 W

              L2_Local Predictor:
                Area = 0.0151917 mm^2
                Peak Dynamic = 0.00527447 W
                Subthreshold Leakage = 0.00181347 W
                Subthreshold Leakage with power gating = 0.000957045 W
                Gate Leakage = 8.00196e-05 W
                Runtime Dynamic = 0.000115426 W

              Chooser:
                Area = 0.0435221 mm^2
                Peak Dynamic = 0.0168831 W
                Subthreshold Leakage = 0.00759719 W
                Subthreshold Leakage with power gating = 0.0039236 W
                Gate Leakage = 0.000278362 W
                Runtime Dynamic = 0.000348494 W

              RAS:
                Area = 0.0105732 mm^2
                Peak Dynamic = 0.0117602 W
                Subthreshold Leakage = 0.000932505 W
                Subthreshold Leakage with power gating = 0.000494733 W
                Gate Leakage = 4.63858e-05 W
                Runtime Dynamic = 0.000175305 W

          Instruction Buffer:
            Area = 11.1802 mm^2
            Peak Dynamic = 4028.05 W
            Subthreshold Leakage = 1.03354 W
            Subthreshold Leakage with power gating = 0.389491 W
            Gate Leakage = 0.119458 W
            Runtime Dynamic = 4.86712 W

          Instruction Decoder:
            Area = 29.7278 mm^2
            Peak Dynamic = 21.9846 W
            Subthreshold Leakage = 0.442943 W
            Subthreshold Leakage with power gating = 0.166104 W
            Gate Leakage = 0.0222493 W
            Runtime Dynamic = 0.0398462 W

      Renaming Unit:
        Area = 27.8071 mm^2
        Peak Dynamic = 2556.62 W
        Subthreshold Leakage = 0.87819 W
        Subthreshold Leakage with power gating = 0.437089 W
        Gate Leakage = 0.0906085 W
        Runtime Dynamic = 4.57374 W

          Int Front End RAT:
            Area = 19.3301 mm^2
            Peak Dynamic = 2465.83 W
            Subthreshold Leakage = 0.500294 W
            Subthreshold Leakage with power gating = 0.285168 W
            Gate Leakage = 0.0323898 W
            Runtime Dynamic = 4.46084 W

          FP Front End RAT:
            Area = 0.168486 mm^2
            Peak Dynamic = 78.3725 W
            Subthreshold Leakage = 0.0437281 W
            Subthreshold Leakage with power gating = 0.024925 W
            Gate Leakage = 0.00489731 W
            Runtime Dynamic = 0.0855158 W

          Free List:
            Area = 7.5975 mm^2
            Peak Dynamic = 7.41375 W
            Subthreshold Leakage = 0.0190978 W
            Subthreshold Leakage with power gating = 0.00884518 W
            Gate Leakage = 0.00102434 W
            Runtime Dynamic = 0.0273798 W

      Load Store Unit:
        Area = 9.47562 mm^2
        Peak Dynamic = 2.11685 W
        Subthreshold Leakage = 0.886727 W
        Subthreshold Leakage with power gating = 0.394071 W
        Gate Leakage = 0.0841218 W
        Runtime Dynamic = 0.346162 W

          Data Cache:
            Area = 6.84535 mm^2
            Peak Dynamic = 1.73601 W
            Subthreshold Leakage = 0.527675 W
            Subthreshold Leakage with power gating = 0.25085 W
            Gate Leakage = 0.0279261 W
            Runtime Dynamic = 0.25042 W

          LoadQ:
            Area = 0.0836782 mm^2
            Peak Dynamic = 0.0161402 W
            Subthreshold Leakage = 0.00941961 W
            Subthreshold Leakage with power gating = 0.00536918 W
            Gate Leakage = 0.00059896 W
            Runtime Dynamic = 0.0161402 W

          StoreQ:
            Area = 0.322079 mm^2
            Peak Dynamic = 0.0397989 W
            Subthreshold Leakage = 0.0345621 W
            Subthreshold Leakage with power gating = 0.0197004 W
            Gate Leakage = 0.00329971 W
            Runtime Dynamic = 0.0795982 W

      Memory Management Unit:
        Area = 1.10051 mm^2
        Peak Dynamic = 2.72419 W
        Subthreshold Leakage = 0.372016 W
        Subthreshold Leakage with power gating = 0.150611 W
        Gate Leakage = 0.057119 W
        Runtime Dynamic = 0.0273402 W

          Itlb:
            Area = 0.301552 mm^2
            Peak Dynamic = 0.0463982 W
            Subthreshold Leakage = 0.0413758 W
            Subthreshold Leakage with power gating = 0.0235842 W
            Gate Leakage = 0.00393464 W
            Runtime Dynamic = 0.0124684 W

          Dtlb:
            Area = 0.0879726 mm^2
            Peak Dynamic = 0.0141248 W
            Subthreshold Leakage = 0.0155699 W
            Subthreshold Leakage with power gating = 0.00887485 W
            Gate Leakage = 0.00088729 W
            Runtime Dynamic = 0.0148681 W

      Execution Unit:
        Area = 1686.67 mm^2
        Peak Dynamic = 202643 W
        Subthreshold Leakage = 70.0229 W
        Subthreshold Leakage with power gating = 29.962 W
        Gate Leakage = 5.03755 W
        Runtime Dynamic = 466.301 W

          Register Files:
            Area = 111.819 mm^2
            Peak Dynamic = 0.440676 W
            Subthreshold Leakage = 1.55192 W
            Subthreshold Leakage with power gating = 0.587195 W
            Gate Leakage = 0.101689 W
            Runtime Dynamic = 0.182937 W

              Integer RF:
                Area = 74.0344 mm^2
                Peak Dynamic = 0.244401 W
                Subthreshold Leakage = 1.06477 W
                Subthreshold Leakage with power gating = 0.401522 W
                Gate Leakage = 0.0700135 W
                Runtime Dynamic = 0.163529 W

              Floating Point RF:
                Area = 37.7848 mm^2
                Peak Dynamic = 0.196274 W
                Subthreshold Leakage = 0.487147 W
                Subthreshold Leakage with power gating = 0.185673 W
                Gate Leakage = 0.0316755 W
                Runtime Dynamic = 0.0194083 W

          Instruction Scheduler:
            Area = 1561.2 mm^2
            Peak Dynamic = 202642 W
            Subthreshold Leakage = 59.5387 W
            Subthreshold Leakage with power gating = 26.0252 W
            Gate Leakage = 4.31521 W
            Runtime Dynamic = 464.014 W

              Instruction Window:
                Area = 242.241 mm^2
                Peak Dynamic = 491.03 W
                Subthreshold Leakage = 18.7871 W
                Subthreshold Leakage with power gating = 10.7075 W
                Gate Leakage = 1.23925 W
                Runtime Dynamic = 1.14984 W

              FP Instruction Window:
                Area = 0.328073 mm^2
                Peak Dynamic = 2.30959 W
                Subthreshold Leakage = 0.0225127 W
                Subthreshold Leakage with power gating = 0.0116864 W
                Gate Leakage = 0.00181534 W
                Runtime Dynamic = 0.0774136 W

              ROB:
                Area = 1318.63 mm^2
                Peak Dynamic = 202149 W
                Subthreshold Leakage = 40.7291 W
                Subthreshold Leakage with power gating = 15.306 W
                Gate Leakage = 3.07414 W
                Runtime Dynamic = 462.787 W

          Integer ALUs (Count: 96 ):
            Area = 7.53393 mm^2
            Peak Dynamic = 0.0423608 W
            Subthreshold Leakage = 6.43552 W
            Subthreshold Leakage with power gating = 2.41332 W
            Gate Leakage = 0.424466 W
            Runtime Dynamic = 0.147757 W

          Floating Point Units (FPUs) (Count: 2 ):
            Area = 4.6585 mm^2
            Peak Dynamic = 0.00552054 W
            Subthreshold Leakage = 0.994829 W
            Subthreshold Leakage with power gating = 0.373061 W
            Gate Leakage = 0.0656156 W
            Runtime Dynamic = 0.306462 W

          Complex ALUs (Mul/Div) (Count: 1 ):
            Area = 0.235435 mm^2
            Peak Dynamic = 0.000686789 W
            Subthreshold Leakage = 0.20111 W
            Subthreshold Leakage with power gating = 0.0754163 W
            Gate Leakage = 0.0132646 W
            Runtime Dynamic = 0.203228 W

          Results Broadcast Bus:
            Area Overhead = 0.510923 mm^2
            Peak Dynamic = 0.0436889 W
            Subthreshold Leakage = 0.985661 W
            Subthreshold Leakage with power gating = 0.369623 W
            Gate Leakage = 0.0650109 W
            Runtime Dynamic = 1.44671 W

*****************************************************************************************
Core:
      Area = 1776.72 mm^2
      Peak Dynamic = 209256 W
      Subthreshold Leakage = 76.417 W
      Subthreshold Leakage with power gating = 32.6025 W
      Gate Leakage = 5.63287 W
      Runtime Dynamic = 421.961 W

      Instruction Fetch Unit:
        Area = 47.2731 mm^2
        Peak Dynamic = 4051.74 W
        Subthreshold Leakage = 2.37932 W
        Subthreshold Leakage with power gating = 0.95452 W
        Gate Leakage = 0.23961 W
        Runtime Dynamic = 4.51859 W

          Instruction Cache:
            Area = 4.86613 mm^2
            Peak Dynamic = 0.947773 W
            Subthreshold Leakage = 0.486629 W
            Subthreshold Leakage with power gating = 0.22691 W
            Gate Leakage = 0.0421203 W
            Runtime Dynamic = 0.139479 W

          Branch Target Buffer:
            Area = 0.64954 mm^2
            Peak Dynamic = 0.177867 W
            Subthreshold Leakage = 0.0811682 W
            Subthreshold Leakage with power gating = 0.0435357 W
            Gate Leakage = 0.00272758 W
            Runtime Dynamic = 0.00304742 W

          Branch Predictor:
            Area = 0.138516 mm^2
            Peak Dynamic = 0.0597838 W
            Subthreshold Leakage = 0.0199703 W
            Subthreshold Leakage with power gating = 0.0103282 W
            Gate Leakage = 0.000757657 W
            Runtime Dynamic = 0.00104566 W

              Global Predictor:
                Area = 0.0435221 mm^2
                Peak Dynamic = 0.0168831 W
                Subthreshold Leakage = 0.00759719 W
                Subthreshold Leakage with power gating = 0.0039236 W
                Gate Leakage = 0.000278362 W
                Runtime Dynamic = 0.000310469 W

              Local Predictor:
              L1_Local Predictor:
                Area = 0.0257064 mm^2
                Peak Dynamic = 0.0142575 W
                Subthreshold Leakage = 0.00384344 W
                Subthreshold Leakage with power gating = 0.00198631 W
                Gate Leakage = 0.000154548 W
                Runtime Dynamic = 0.00026844 W

              L2_Local Predictor:
                Area = 0.0151917 mm^2
                Peak Dynamic = 0.00527447 W
                Subthreshold Leakage = 0.00181347 W
                Subthreshold Leakage with power gating = 0.000957045 W
                Gate Leakage = 8.00196e-05 W
                Runtime Dynamic = 0.000102836 W

              Chooser:
                Area = 0.0435221 mm^2
                Peak Dynamic = 0.0168831 W
                Subthreshold Leakage = 0.00759719 W
                Subthreshold Leakage with power gating = 0.0039236 W
                Gate Leakage = 0.000278362 W
                Runtime Dynamic = 0.000310469 W

              RAS:
                Area = 0.0105732 mm^2
                Peak Dynamic = 0.0117602 W
                Subthreshold Leakage = 0.000932505 W
                Subthreshold Leakage with power gating = 0.000494733 W
                Gate Leakage = 4.63858e-05 W
                Runtime Dynamic = 0.000156286 W

          Instruction Buffer:
            Area = 11.1802 mm^2
            Peak Dynamic = 4028.05 W
            Subthreshold Leakage = 1.03354 W
            Subthreshold Leakage with power gating = 0.389491 W
            Gate Leakage = 0.119458 W
            Runtime Dynamic = 4.33949 W

          Instruction Decoder:
            Area = 29.7278 mm^2
            Peak Dynamic = 21.9846 W
            Subthreshold Leakage = 0.442943 W
            Subthreshold Leakage with power gating = 0.166104 W
            Gate Leakage = 0.0222493 W
            Runtime Dynamic = 0.0355265 W

      Renaming Unit:
        Area = 27.8071 mm^2
        Peak Dynamic = 2556.62 W
        Subthreshold Leakage = 0.87819 W
        Subthreshold Leakage with power gating = 0.437089 W
        Gate Leakage = 0.0906085 W
        Runtime Dynamic = 4.08715 W

          Int Front End RAT:
            Area = 19.3301 mm^2
            Peak Dynamic = 2465.83 W
            Subthreshold Leakage = 0.500294 W
            Subthreshold Leakage with power gating = 0.285168 W
            Gate Leakage = 0.0323898 W
            Runtime Dynamic = 3.97716 W

          FP Front End RAT:
            Area = 0.168486 mm^2
            Peak Dynamic = 78.3725 W
            Subthreshold Leakage = 0.0437281 W
            Subthreshold Leakage with power gating = 0.024925 W
            Gate Leakage = 0.00489731 W
            Runtime Dynamic = 0.0855158 W

          Free List:
            Area = 7.5975 mm^2
            Peak Dynamic = 7.41375 W
            Subthreshold Leakage = 0.0190978 W
            Subthreshold Leakage with power gating = 0.00884518 W
            Gate Leakage = 0.00102434 W
            Runtime Dynamic = 0.0244664 W

      Load Store Unit:
        Area = 9.47562 mm^2
        Peak Dynamic = 2.03169 W
        Subthreshold Leakage = 0.886727 W
        Subthreshold Leakage with power gating = 0.394071 W
        Gate Leakage = 0.0841218 W
        Runtime Dynamic = 0.313357 W

          Data Cache:
            Area = 6.84535 mm^2
            Peak Dynamic = 1.68772 W
            Subthreshold Leakage = 0.527675 W
            Subthreshold Leakage with power gating = 0.25085 W
            Gate Leakage = 0.0279261 W
            Runtime Dynamic = 0.226883 W

          LoadQ:
            Area = 0.0836782 mm^2
            Peak Dynamic = 0.0145778 W
            Subthreshold Leakage = 0.00941961 W
            Subthreshold Leakage with power gating = 0.00536918 W
            Gate Leakage = 0.00059896 W
            Runtime Dynamic = 0.0145778 W

          StoreQ:
            Area = 0.322079 mm^2
            Peak Dynamic = 0.0359464 W
            Subthreshold Leakage = 0.0345621 W
            Subthreshold Leakage with power gating = 0.0197004 W
            Gate Leakage = 0.00329971 W
            Runtime Dynamic = 0.071893 W

      Memory Management Unit:
        Area = 1.10051 mm^2
        Peak Dynamic = 2.70207 W
        Subthreshold Leakage = 0.372016 W
        Subthreshold Leakage with power gating = 0.150611 W
        Gate Leakage = 0.057119 W
        Runtime Dynamic = 0.024229 W

          Itlb:
            Area = 0.301552 mm^2
            Peak Dynamic = 0.0413682 W
            Subthreshold Leakage = 0.0413758 W
            Subthreshold Leakage with power gating = 0.0235842 W
            Gate Leakage = 0.00393464 W
            Runtime Dynamic = 0.0107919 W

          Dtlb:
            Area = 0.0879726 mm^2
            Peak Dynamic = 0.0127575 W
            Subthreshold Leakage = 0.0155699 W
            Subthreshold Leakage with power gating = 0.00887485 W
            Gate Leakage = 0.00088729 W
            Runtime Dynamic = 0.0134335 W

      Execution Unit:
        Area = 1686.67 mm^2
        Peak Dynamic = 202643 W
        Subthreshold Leakage = 70.0229 W
        Subthreshold Leakage with power gating = 29.962 W
        Gate Leakage = 5.03755 W
        Runtime Dynamic = 413.017 W

          Register Files:
            Area = 111.819 mm^2
            Peak Dynamic = 0.42334 W
            Subthreshold Leakage = 1.55192 W
            Subthreshold Leakage with power gating = 0.587195 W
            Gate Leakage = 0.101689 W
            Runtime Dynamic = 0.163105 W

              Integer RF:
                Area = 74.0344 mm^2
                Peak Dynamic = 0.227066 W
                Subthreshold Leakage = 1.06477 W
                Subthreshold Leakage with power gating = 0.401522 W
                Gate Leakage = 0.0700135 W
                Runtime Dynamic = 0.145801 W

              Floating Point RF:
                Area = 37.7848 mm^2
                Peak Dynamic = 0.196274 W
                Subthreshold Leakage = 0.487147 W
                Subthreshold Leakage with power gating = 0.185673 W
                Gate Leakage = 0.0316755 W
                Runtime Dynamic = 0.0173041 W

          Instruction Scheduler:
            Area = 1561.2 mm^2
            Peak Dynamic = 202642 W
            Subthreshold Leakage = 59.5387 W
            Subthreshold Leakage with power gating = 26.0252 W
            Gate Leakage = 4.31521 W
            Runtime Dynamic = 410.923 W

              Instruction Window:
                Area = 242.241 mm^2
                Peak Dynamic = 491.03 W
                Subthreshold Leakage = 18.7871 W
                Subthreshold Leakage with power gating = 10.7075 W
                Gate Leakage = 1.23925 W
                Runtime Dynamic = 1.02519 W

              FP Instruction Window:
                Area = 0.328073 mm^2
                Peak Dynamic = 2.30959 W
                Subthreshold Leakage = 0.0225127 W
                Subthreshold Leakage with power gating = 0.0116864 W
                Gate Leakage = 0.00181534 W
                Runtime Dynamic = 0.069021 W

              ROB:
                Area = 1318.63 mm^2
                Peak Dynamic = 202149 W
                Subthreshold Leakage = 40.7291 W
                Subthreshold Leakage with power gating = 15.306 W
                Gate Leakage = 3.07414 W
                Runtime Dynamic = 409.829 W

          Integer ALUs (Count: 96 ):
            Area = 7.53393 mm^2
            Peak Dynamic = 0.0376819 W
            Subthreshold Leakage = 6.43552 W
            Subthreshold Leakage with power gating = 2.41332 W
            Gate Leakage = 0.424466 W
            Runtime Dynamic = 0.142316 W

          Floating Point Units (FPUs) (Count: 2 ):
            Area = 4.6585 mm^2
            Peak Dynamic = 0.00552054 W
            Subthreshold Leakage = 0.994829 W
            Subthreshold Leakage with power gating = 0.373061 W
            Gate Leakage = 0.0656156 W
            Runtime Dynamic = 0.306462 W

          Complex ALUs (Mul/Div) (Count: 1 ):
            Area = 0.235435 mm^2
            Peak Dynamic = 0.000686789 W
            Subthreshold Leakage = 0.20111 W
            Subthreshold Leakage with power gating = 0.0754163 W
            Gate Leakage = 0.0132646 W
            Runtime Dynamic = 0.203228 W

          Results Broadcast Bus:
            Area Overhead = 0.510923 mm^2
            Peak Dynamic = 0.0407032 W
            Subthreshold Leakage = 0.985661 W
            Subthreshold Leakage with power gating = 0.369623 W
            Gate Leakage = 0.0650109 W
            Runtime Dynamic = 1.27957 W

*****************************************************************************************
Core:
      Area = 1776.72 mm^2
      Peak Dynamic = 209256 W
      Subthreshold Leakage = 76.417 W
      Subthreshold Leakage with power gating = 32.6025 W
      Gate Leakage = 5.63287 W
      Runtime Dynamic = 393.267 W

      Instruction Fetch Unit:
        Area = 47.2731 mm^2
        Peak Dynamic = 4051.65 W
        Subthreshold Leakage = 2.37932 W
        Subthreshold Leakage with power gating = 0.95452 W
        Gate Leakage = 0.23961 W
        Runtime Dynamic = 4.2261 W

          Instruction Cache:
            Area = 4.86613 mm^2
            Peak Dynamic = 0.886951 W
            Subthreshold Leakage = 0.486629 W
            Subthreshold Leakage with power gating = 0.22691 W
            Gate Leakage = 0.0421203 W
            Runtime Dynamic = 0.128044 W

          Branch Target Buffer:
            Area = 0.64954 mm^2
            Peak Dynamic = 0.177867 W
            Subthreshold Leakage = 0.0811682 W
            Subthreshold Leakage with power gating = 0.0435357 W
            Gate Leakage = 0.00272758 W
            Runtime Dynamic = 0.00285063 W

          Branch Predictor:
            Area = 0.138516 mm^2
            Peak Dynamic = 0.0597838 W
            Subthreshold Leakage = 0.0199703 W
            Subthreshold Leakage with power gating = 0.0103282 W
            Gate Leakage = 0.000757657 W
            Runtime Dynamic = 0.000978443 W

              Global Predictor:
                Area = 0.0435221 mm^2
                Peak Dynamic = 0.0168831 W
                Subthreshold Leakage = 0.00759719 W
                Subthreshold Leakage with power gating = 0.0039236 W
                Gate Leakage = 0.000278362 W
                Runtime Dynamic = 0.000290496 W

              Local Predictor:
              L1_Local Predictor:
                Area = 0.0257064 mm^2
                Peak Dynamic = 0.0142575 W
                Subthreshold Leakage = 0.00384344 W
                Subthreshold Leakage with power gating = 0.00198631 W
                Gate Leakage = 0.000154548 W
                Runtime Dynamic = 0.000251192 W

              L2_Local Predictor:
                Area = 0.0151917 mm^2
                Peak Dynamic = 0.00527447 W
                Subthreshold Leakage = 0.00181347 W
                Subthreshold Leakage with power gating = 0.000957045 W
                Gate Leakage = 8.00196e-05 W
                Runtime Dynamic = 9.62395e-05 W

              Chooser:
                Area = 0.0435221 mm^2
                Peak Dynamic = 0.0168831 W
                Subthreshold Leakage = 0.00759719 W
                Subthreshold Leakage with power gating = 0.0039236 W
                Gate Leakage = 0.000278362 W
                Runtime Dynamic = 0.000290496 W

              RAS:
                Area = 0.0105732 mm^2
                Peak Dynamic = 0.0117602 W
                Subthreshold Leakage = 0.000932505 W
                Subthreshold Leakage with power gating = 0.000494733 W
                Gate Leakage = 4.63858e-05 W
                Runtime Dynamic = 0.00014626 W

          Instruction Buffer:
            Area = 11.1802 mm^2
            Peak Dynamic = 4028.05 W
            Subthreshold Leakage = 1.03354 W
            Subthreshold Leakage with power gating = 0.389491 W
            Gate Leakage = 0.119458 W
            Runtime Dynamic = 4.06097 W

          Instruction Decoder:
            Area = 29.7278 mm^2
            Peak Dynamic = 21.9846 W
            Subthreshold Leakage = 0.442943 W
            Subthreshold Leakage with power gating = 0.166104 W
            Gate Leakage = 0.0222493 W
            Runtime Dynamic = 0.0332464 W

      Renaming Unit:
        Area = 27.8071 mm^2
        Peak Dynamic = 2556.62 W
        Subthreshold Leakage = 0.87819 W
        Subthreshold Leakage with power gating = 0.437089 W
        Gate Leakage = 0.0906085 W
        Runtime Dynamic = 3.8303 W

          Int Front End RAT:
            Area = 19.3301 mm^2
            Peak Dynamic = 2465.83 W
            Subthreshold Leakage = 0.500294 W
            Subthreshold Leakage with power gating = 0.285168 W
            Gate Leakage = 0.0323898 W
            Runtime Dynamic = 3.72185 W

          FP Front End RAT:
            Area = 0.168486 mm^2
            Peak Dynamic = 78.3725 W
            Subthreshold Leakage = 0.0437281 W
            Subthreshold Leakage with power gating = 0.024925 W
            Gate Leakage = 0.00489731 W
            Runtime Dynamic = 0.0855158 W

          Free List:
            Area = 7.5975 mm^2
            Peak Dynamic = 7.41375 W
            Subthreshold Leakage = 0.0190978 W
            Subthreshold Leakage with power gating = 0.00884518 W
            Gate Leakage = 0.00102434 W
            Runtime Dynamic = 0.0229286 W

      Load Store Unit:
        Area = 9.47562 mm^2
        Peak Dynamic = 1.98674 W
        Subthreshold Leakage = 0.886727 W
        Subthreshold Leakage with power gating = 0.394071 W
        Gate Leakage = 0.0841218 W
        Runtime Dynamic = 0.295736 W

          Data Cache:
            Area = 6.84535 mm^2
            Peak Dynamic = 1.66222 W
            Subthreshold Leakage = 0.527675 W
            Subthreshold Leakage with power gating = 0.25085 W
            Gate Leakage = 0.0279261 W
            Runtime Dynamic = 0.214154 W

          LoadQ:
            Area = 0.0836782 mm^2
            Peak Dynamic = 0.013753 W
            Subthreshold Leakage = 0.00941961 W
            Subthreshold Leakage with power gating = 0.00536918 W
            Gate Leakage = 0.00059896 W
            Runtime Dynamic = 0.013753 W

          StoreQ:
            Area = 0.322079 mm^2
            Peak Dynamic = 0.0339126 W
            Subthreshold Leakage = 0.0345621 W
            Subthreshold Leakage with power gating = 0.0197004 W
            Gate Leakage = 0.00329971 W
            Runtime Dynamic = 0.0678251 W

      Memory Management Unit:
        Area = 1.10051 mm^2
        Peak Dynamic = 2.69039 W
        Subthreshold Leakage = 0.372016 W
        Subthreshold Leakage with power gating = 0.150611 W
        Gate Leakage = 0.057119 W
        Runtime Dynamic = 0.022577 W

          Itlb:
            Area = 0.301552 mm^2
            Peak Dynamic = 0.0387135 W
            Subthreshold Leakage = 0.0413758 W
            Subthreshold Leakage with power gating = 0.0235842 W
            Gate Leakage = 0.00393464 W
            Runtime Dynamic = 0.00990731 W

          Dtlb:
            Area = 0.0879726 mm^2
            Peak Dynamic = 0.0120357 W
            Subthreshold Leakage = 0.0155699 W
            Subthreshold Leakage with power gating = 0.00887485 W
            Gate Leakage = 0.00088729 W
            Runtime Dynamic = 0.012666 W

      Execution Unit:
        Area = 1686.67 mm^2
        Peak Dynamic = 202643 W
        Subthreshold Leakage = 70.0229 W
        Subthreshold Leakage with power gating = 29.962 W
        Gate Leakage = 5.03755 W
        Runtime Dynamic = 384.892 W

          Register Files:
            Area = 111.819 mm^2
            Peak Dynamic = 0.414077 W
            Subthreshold Leakage = 1.55192 W
            Subthreshold Leakage with power gating = 0.587195 W
            Gate Leakage = 0.101689 W
            Runtime Dynamic = 0.152637 W

              Integer RF:
                Area = 74.0344 mm^2
                Peak Dynamic = 0.217803 W
                Subthreshold Leakage = 1.06477 W
                Subthreshold Leakage with power gating = 0.401522 W
                Gate Leakage = 0.0700135 W
                Runtime Dynamic = 0.136443 W

              Floating Point RF:
                Area = 37.7848 mm^2
                Peak Dynamic = 0.196274 W
                Subthreshold Leakage = 0.487147 W
                Subthreshold Leakage with power gating = 0.185673 W
                Gate Leakage = 0.0316755 W
                Runtime Dynamic = 0.0161938 W

          Instruction Scheduler:
            Area = 1561.2 mm^2
            Peak Dynamic = 202642 W
            Subthreshold Leakage = 59.5387 W
            Subthreshold Leakage with power gating = 26.0252 W
            Gate Leakage = 4.31521 W
            Runtime Dynamic = 382.899 W

              Instruction Window:
                Area = 242.241 mm^2
                Peak Dynamic = 491.03 W
                Subthreshold Leakage = 18.7871 W
                Subthreshold Leakage with power gating = 10.7075 W
                Gate Leakage = 1.23925 W
                Runtime Dynamic = 0.959388 W

              FP Instruction Window:
                Area = 0.328073 mm^2
                Peak Dynamic = 2.30959 W
                Subthreshold Leakage = 0.0225127 W
                Subthreshold Leakage with power gating = 0.0116864 W
                Gate Leakage = 0.00181534 W
                Runtime Dynamic = 0.0645914 W

              ROB:
                Area = 1318.63 mm^2
                Peak Dynamic = 202149 W
                Subthreshold Leakage = 40.7291 W
                Subthreshold Leakage with power gating = 15.306 W
                Gate Leakage = 3.07414 W
                Runtime Dynamic = 381.875 W

          Integer ALUs (Count: 96 ):
            Area = 7.53393 mm^2
            Peak Dynamic = 0.0351816 W
            Subthreshold Leakage = 6.43552 W
            Subthreshold Leakage with power gating = 2.41332 W
            Gate Leakage = 0.424466 W
            Runtime Dynamic = 0.139443 W

          Floating Point Units (FPUs) (Count: 2 ):
            Area = 4.6585 mm^2
            Peak Dynamic = 0.00552054 W
            Subthreshold Leakage = 0.994829 W
            Subthreshold Leakage with power gating = 0.373061 W
            Gate Leakage = 0.0656156 W
            Runtime Dynamic = 0.306462 W

          Complex ALUs (Mul/Div) (Count: 1 ):
            Area = 0.235435 mm^2
            Peak Dynamic = 0.000686789 W
            Subthreshold Leakage = 0.20111 W
            Subthreshold Leakage with power gating = 0.0754163 W
            Gate Leakage = 0.0132646 W
            Runtime Dynamic = 0.203228 W

          Results Broadcast Bus:
            Area Overhead = 0.510923 mm^2
            Peak Dynamic = 0.0391079 W
            Subthreshold Leakage = 0.985661 W
            Subthreshold Leakage with power gating = 0.369623 W
            Gate Leakage = 0.0650109 W
            Runtime Dynamic = 1.19133 W

*****************************************************************************************
Core:
      Area = 1776.72 mm^2
      Peak Dynamic = 209256 W
      Subthreshold Leakage = 76.417 W
      Subthreshold Leakage with power gating = 32.6025 W
      Gate Leakage = 5.63287 W
      Runtime Dynamic = 383.97 W

      Instruction Fetch Unit:
        Area = 47.2731 mm^2
        Peak Dynamic = 4051.62 W
        Subthreshold Leakage = 2.37932 W
        Subthreshold Leakage with power gating = 0.95452 W
        Gate Leakage = 0.23961 W
        Runtime Dynamic = 4.13206 W

          Instruction Cache:
            Area = 4.86613 mm^2
            Peak Dynamic = 0.867404 W
            Subthreshold Leakage = 0.486629 W
            Subthreshold Leakage with power gating = 0.22691 W
            Gate Leakage = 0.0421203 W
            Runtime Dynamic = 0.12432 W

          Branch Target Buffer:
            Area = 0.64954 mm^2
            Peak Dynamic = 0.177867 W
            Subthreshold Leakage = 0.0811682 W
            Subthreshold Leakage with power gating = 0.0435357 W
            Gate Leakage = 0.00272758 W
            Runtime Dynamic = 0.00278736 W

          Branch Predictor:
            Area = 0.138516 mm^2
            Peak Dynamic = 0.0597838 W
            Subthreshold Leakage = 0.0199703 W
            Subthreshold Leakage with power gating = 0.0103282 W
            Gate Leakage = 0.000757657 W
            Runtime Dynamic = 0.000957054 W

              Global Predictor:
                Area = 0.0435221 mm^2
                Peak Dynamic = 0.0168831 W
                Subthreshold Leakage = 0.00759719 W
                Subthreshold Leakage with power gating = 0.0039236 W
                Gate Leakage = 0.000278362 W
                Runtime Dynamic = 0.000284148 W

              Local Predictor:
              L1_Local Predictor:
                Area = 0.0257064 mm^2
                Peak Dynamic = 0.0142575 W
                Subthreshold Leakage = 0.00384344 W
                Subthreshold Leakage with power gating = 0.00198631 W
                Gate Leakage = 0.000154548 W
                Runtime Dynamic = 0.00024573 W

              L2_Local Predictor:
                Area = 0.0151917 mm^2
                Peak Dynamic = 0.00527447 W
                Subthreshold Leakage = 0.00181347 W
                Subthreshold Leakage with power gating = 0.000957045 W
                Gate Leakage = 8.00196e-05 W
                Runtime Dynamic = 9.41623e-05 W

              Chooser:
                Area = 0.0435221 mm^2
                Peak Dynamic = 0.0168831 W
                Subthreshold Leakage = 0.00759719 W
                Subthreshold Leakage with power gating = 0.0039236 W
                Gate Leakage = 0.000278362 W
                Runtime Dynamic = 0.000284148 W

              RAS:
                Area = 0.0105732 mm^2
                Peak Dynamic = 0.0117602 W
                Subthreshold Leakage = 0.000932505 W
                Subthreshold Leakage with power gating = 0.000494733 W
                Gate Leakage = 4.63858e-05 W
                Runtime Dynamic = 0.000143027 W

          Instruction Buffer:
            Area = 11.1802 mm^2
            Peak Dynamic = 4028.05 W
            Subthreshold Leakage = 1.03354 W
            Subthreshold Leakage with power gating = 0.389491 W
            Gate Leakage = 0.119458 W
            Runtime Dynamic = 3.97148 W

          Instruction Decoder:
            Area = 29.7278 mm^2
            Peak Dynamic = 21.9846 W
            Subthreshold Leakage = 0.442943 W
            Subthreshold Leakage with power gating = 0.166104 W
            Gate Leakage = 0.0222493 W
            Runtime Dynamic = 0.0325138 W

      Renaming Unit:
        Area = 27.8071 mm^2
        Peak Dynamic = 2556.62 W
        Subthreshold Leakage = 0.87819 W
        Subthreshold Leakage with power gating = 0.437089 W
        Gate Leakage = 0.0906085 W
        Runtime Dynamic = 3.74777 W

          Int Front End RAT:
            Area = 19.3301 mm^2
            Peak Dynamic = 2465.83 W
            Subthreshold Leakage = 0.500294 W
            Subthreshold Leakage with power gating = 0.285168 W
            Gate Leakage = 0.0323898 W
            Runtime Dynamic = 3.63981 W

          FP Front End RAT:
            Area = 0.168486 mm^2
            Peak Dynamic = 78.3725 W
            Subthreshold Leakage = 0.0437281 W
            Subthreshold Leakage with power gating = 0.024925 W
            Gate Leakage = 0.00489731 W
            Runtime Dynamic = 0.0855158 W

          Free List:
            Area = 7.5975 mm^2
            Peak Dynamic = 7.41375 W
            Subthreshold Leakage = 0.0190978 W
            Subthreshold Leakage with power gating = 0.00884518 W
            Gate Leakage = 0.00102434 W
            Runtime Dynamic = 0.0224345 W

      Load Store Unit:
        Area = 9.47562 mm^2
        Peak Dynamic = 1.97216 W
        Subthreshold Leakage = 0.886727 W
        Subthreshold Leakage with power gating = 0.394071 W
        Gate Leakage = 0.0841218 W
        Runtime Dynamic = 0.290981 W

          Data Cache:
            Area = 6.84535 mm^2
            Peak Dynamic = 1.65396 W
            Subthreshold Leakage = 0.527675 W
            Subthreshold Leakage with power gating = 0.25085 W
            Gate Leakage = 0.0279261 W
            Runtime Dynamic = 0.210986 W

          LoadQ:
            Area = 0.0836782 mm^2
            Peak Dynamic = 0.0134856 W
            Subthreshold Leakage = 0.00941961 W
            Subthreshold Leakage with power gating = 0.00536918 W
            Gate Leakage = 0.00059896 W
            Runtime Dynamic = 0.0134856 W

          StoreQ:
            Area = 0.322079 mm^2
            Peak Dynamic = 0.0332533 W
            Subthreshold Leakage = 0.0345621 W
            Subthreshold Leakage with power gating = 0.0197004 W
            Gate Leakage = 0.00329971 W
            Runtime Dynamic = 0.0665065 W

      Memory Management Unit:
        Area = 1.10051 mm^2
        Peak Dynamic = 2.68661 W
        Subthreshold Leakage = 0.372016 W
        Subthreshold Leakage with power gating = 0.150611 W
        Gate Leakage = 0.057119 W
        Runtime Dynamic = 0.0220342 W

          Itlb:
            Area = 0.301552 mm^2
            Peak Dynamic = 0.0378603 W
            Subthreshold Leakage = 0.0413758 W
            Subthreshold Leakage with power gating = 0.0235842 W
            Gate Leakage = 0.00393464 W
            Runtime Dynamic = 0.00961926 W

          Dtlb:
            Area = 0.0879726 mm^2
            Peak Dynamic = 0.0118017 W
            Subthreshold Leakage = 0.0155699 W
            Subthreshold Leakage with power gating = 0.00887485 W
            Gate Leakage = 0.00088729 W
            Runtime Dynamic = 0.0124113 W

      Execution Unit:
        Area = 1686.67 mm^2
        Peak Dynamic = 202643 W
        Subthreshold Leakage = 70.0229 W
        Subthreshold Leakage with power gating = 29.962 W
        Gate Leakage = 5.03755 W
        Runtime Dynamic = 375.777 W

          Register Files:
            Area = 111.819 mm^2
            Peak Dynamic = 0.411166 W
            Subthreshold Leakage = 1.55192 W
            Subthreshold Leakage with power gating = 0.587195 W
            Gate Leakage = 0.101689 W
            Runtime Dynamic = 0.149273 W

              Integer RF:
                Area = 74.0344 mm^2
                Peak Dynamic = 0.214892 W
                Subthreshold Leakage = 1.06477 W
                Subthreshold Leakage with power gating = 0.401522 W
                Gate Leakage = 0.0700135 W
                Runtime Dynamic = 0.133436 W

              Floating Point RF:
                Area = 37.7848 mm^2
                Peak Dynamic = 0.196274 W
                Subthreshold Leakage = 0.487147 W
                Subthreshold Leakage with power gating = 0.185673 W
                Gate Leakage = 0.0316755 W
                Runtime Dynamic = 0.0158368 W

          Instruction Scheduler:
            Area = 1561.2 mm^2
            Peak Dynamic = 202642 W
            Subthreshold Leakage = 59.5387 W
            Subthreshold Leakage with power gating = 26.0252 W
            Gate Leakage = 4.31521 W
            Runtime Dynamic = 373.817 W

              Instruction Window:
                Area = 242.241 mm^2
                Peak Dynamic = 491.03 W
                Subthreshold Leakage = 18.7871 W
                Subthreshold Leakage with power gating = 10.7075 W
                Gate Leakage = 1.23925 W
                Runtime Dynamic = 0.938246 W

              FP Instruction Window:
                Area = 0.328073 mm^2
                Peak Dynamic = 2.30959 W
                Subthreshold Leakage = 0.0225127 W
                Subthreshold Leakage with power gating = 0.0116864 W
                Gate Leakage = 0.00181534 W
                Runtime Dynamic = 0.063168 W

              ROB:
                Area = 1318.63 mm^2
                Peak Dynamic = 202149 W
                Subthreshold Leakage = 40.7291 W
                Subthreshold Leakage with power gating = 15.306 W
                Gate Leakage = 3.07414 W
                Runtime Dynamic = 372.816 W

          Integer ALUs (Count: 96 ):
            Area = 7.53393 mm^2
            Peak Dynamic = 0.0343959 W
            Subthreshold Leakage = 6.43552 W
            Subthreshold Leakage with power gating = 2.41332 W
            Gate Leakage = 0.424466 W
            Runtime Dynamic = 0.138511 W

          Floating Point Units (FPUs) (Count: 2 ):
            Area = 4.6585 mm^2
            Peak Dynamic = 0.00552054 W
            Subthreshold Leakage = 0.994829 W
            Subthreshold Leakage with power gating = 0.373061 W
            Gate Leakage = 0.0656156 W
            Runtime Dynamic = 0.306462 W

          Complex ALUs (Mul/Div) (Count: 1 ):
            Area = 0.235435 mm^2
            Peak Dynamic = 0.000686789 W
            Subthreshold Leakage = 0.20111 W
            Subthreshold Leakage with power gating = 0.0754163 W
            Gate Leakage = 0.0132646 W
            Runtime Dynamic = 0.203228 W

          Results Broadcast Bus:
            Area Overhead = 0.510923 mm^2
            Peak Dynamic = 0.0386065 W
            Subthreshold Leakage = 0.985661 W
            Subthreshold Leakage with power gating = 0.369623 W
            Gate Leakage = 0.0650109 W
            Runtime Dynamic = 1.1627 W

*****************************************************************************************
Core:
      Area = 1776.72 mm^2
      Peak Dynamic = 209256 W
      Subthreshold Leakage = 76.417 W
      Subthreshold Leakage with power gating = 32.6025 W
      Gate Leakage = 5.63287 W
      Runtime Dynamic = 435.878 W

      Instruction Fetch Unit:
        Area = 47.2731 mm^2
        Peak Dynamic = 4051.79 W
        Subthreshold Leakage = 2.37932 W
        Subthreshold Leakage with power gating = 0.95452 W
        Gate Leakage = 0.23961 W
        Runtime Dynamic = 4.66154 W

          Instruction Cache:
            Area = 4.86613 mm^2
            Peak Dynamic = 0.977511 W
            Subthreshold Leakage = 0.486629 W
            Subthreshold Leakage with power gating = 0.22691 W
            Gate Leakage = 0.0421203 W
            Runtime Dynamic = 0.145023 W

          Branch Target Buffer:
            Area = 0.64954 mm^2
            Peak Dynamic = 0.177867 W
            Subthreshold Leakage = 0.0811682 W
            Subthreshold Leakage with power gating = 0.0435357 W
            Gate Leakage = 0.00272758 W
            Runtime Dynamic = 0.00314317 W

          Branch Predictor:
            Area = 0.138516 mm^2
            Peak Dynamic = 0.0597838 W
            Subthreshold Leakage = 0.0199703 W
            Subthreshold Leakage with power gating = 0.0103282 W
            Gate Leakage = 0.000757657 W
            Runtime Dynamic = 0.0010789 W

              Global Predictor:
                Area = 0.0435221 mm^2
                Peak Dynamic = 0.0168831 W
                Subthreshold Leakage = 0.00759719 W
                Subthreshold Leakage with power gating = 0.0039236 W
                Gate Leakage = 0.000278362 W
                Runtime Dynamic = 0.000320348 W

              Local Predictor:
              L1_Local Predictor:
                Area = 0.0257064 mm^2
                Peak Dynamic = 0.0142575 W
                Subthreshold Leakage = 0.00384344 W
                Subthreshold Leakage with power gating = 0.00198631 W
                Gate Leakage = 0.000154548 W
                Runtime Dynamic = 0.000277016 W

              L2_Local Predictor:
                Area = 0.0151917 mm^2
                Peak Dynamic = 0.00527447 W
                Subthreshold Leakage = 0.00181347 W
                Subthreshold Leakage with power gating = 0.000957045 W
                Gate Leakage = 8.00196e-05 W
                Runtime Dynamic = 0.00010614 W

              Chooser:
                Area = 0.0435221 mm^2
                Peak Dynamic = 0.0168831 W
                Subthreshold Leakage = 0.00759719 W
                Subthreshold Leakage with power gating = 0.0039236 W
                Gate Leakage = 0.000278362 W
                Runtime Dynamic = 0.000320348 W

              RAS:
                Area = 0.0105732 mm^2
                Peak Dynamic = 0.0117602 W
                Subthreshold Leakage = 0.000932505 W
                Subthreshold Leakage with power gating = 0.000494733 W
                Gate Leakage = 4.63858e-05 W
                Runtime Dynamic = 0.000161189 W

          Instruction Buffer:
            Area = 11.1802 mm^2
            Peak Dynamic = 4028.05 W
            Subthreshold Leakage = 1.03354 W
            Subthreshold Leakage with power gating = 0.389491 W
            Gate Leakage = 0.119458 W
            Runtime Dynamic = 4.47565 W

          Instruction Decoder:
            Area = 29.7278 mm^2
            Peak Dynamic = 21.9846 W
            Subthreshold Leakage = 0.442943 W
            Subthreshold Leakage with power gating = 0.166104 W
            Gate Leakage = 0.0222493 W
            Runtime Dynamic = 0.0366413 W

      Renaming Unit:
        Area = 27.8071 mm^2
        Peak Dynamic = 2556.62 W
        Subthreshold Leakage = 0.87819 W
        Subthreshold Leakage with power gating = 0.437089 W
        Gate Leakage = 0.0906085 W
        Runtime Dynamic = 4.21272 W

          Int Front End RAT:
            Area = 19.3301 mm^2
            Peak Dynamic = 2465.83 W
            Subthreshold Leakage = 0.500294 W
            Subthreshold Leakage with power gating = 0.285168 W
            Gate Leakage = 0.0323898 W
            Runtime Dynamic = 4.10198 W

          FP Front End RAT:
            Area = 0.168486 mm^2
            Peak Dynamic = 78.3725 W
            Subthreshold Leakage = 0.0437281 W
            Subthreshold Leakage with power gating = 0.024925 W
            Gate Leakage = 0.00489731 W
            Runtime Dynamic = 0.0855158 W

          Free List:
            Area = 7.5975 mm^2
            Peak Dynamic = 7.41375 W
            Subthreshold Leakage = 0.0190978 W
            Subthreshold Leakage with power gating = 0.00884518 W
            Gate Leakage = 0.00102434 W
            Runtime Dynamic = 0.0252183 W

      Load Store Unit:
        Area = 9.47562 mm^2
        Peak Dynamic = 2.05349 W
        Subthreshold Leakage = 0.886727 W
        Subthreshold Leakage with power gating = 0.394071 W
        Gate Leakage = 0.0841218 W
        Runtime Dynamic = 0.321572 W

          Data Cache:
            Area = 6.84535 mm^2
            Peak Dynamic = 1.70007 W
            Subthreshold Leakage = 0.527675 W
            Subthreshold Leakage with power gating = 0.25085 W
            Gate Leakage = 0.0279261 W
            Runtime Dynamic = 0.232726 W

          LoadQ:
            Area = 0.0836782 mm^2
            Peak Dynamic = 0.0149777 W
            Subthreshold Leakage = 0.00941961 W
            Subthreshold Leakage with power gating = 0.00536918 W
            Gate Leakage = 0.00059896 W
            Runtime Dynamic = 0.0149777 W

          StoreQ:
            Area = 0.322079 mm^2
            Peak Dynamic = 0.0369324 W
            Subthreshold Leakage = 0.0345621 W
            Subthreshold Leakage with power gating = 0.0197004 W
            Gate Leakage = 0.00329971 W
            Runtime Dynamic = 0.073865 W

      Memory Management Unit:
        Area = 1.10051 mm^2
        Peak Dynamic = 2.70774 W
        Subthreshold Leakage = 0.372016 W
        Subthreshold Leakage with power gating = 0.150611 W
        Gate Leakage = 0.057119 W
        Runtime Dynamic = 0.0250202 W

          Itlb:
            Area = 0.301552 mm^2
            Peak Dynamic = 0.0426662 W
            Subthreshold Leakage = 0.0413758 W
            Subthreshold Leakage with power gating = 0.0235842 W
            Gate Leakage = 0.00393464 W
            Runtime Dynamic = 0.0112207 W

          Dtlb:
            Area = 0.0879726 mm^2
            Peak Dynamic = 0.0131074 W
            Subthreshold Leakage = 0.0155699 W
            Subthreshold Leakage with power gating = 0.00887485 W
            Gate Leakage = 0.00088729 W
            Runtime Dynamic = 0.0137958 W

      Execution Unit:
        Area = 1686.67 mm^2
        Peak Dynamic = 202643 W
        Subthreshold Leakage = 70.0229 W
        Subthreshold Leakage with power gating = 29.962 W
        Gate Leakage = 5.03755 W
        Runtime Dynamic = 426.657 W

          Register Files:
            Area = 111.819 mm^2
            Peak Dynamic = 0.427707 W
            Subthreshold Leakage = 1.55192 W
            Subthreshold Leakage with power gating = 0.587195 W
            Gate Leakage = 0.101689 W
            Runtime Dynamic = 0.168223 W

              Integer RF:
                Area = 74.0344 mm^2
                Peak Dynamic = 0.231433 W
                Subthreshold Leakage = 1.06477 W
                Subthreshold Leakage with power gating = 0.401522 W
                Gate Leakage = 0.0700135 W
                Runtime Dynamic = 0.150376 W

              Floating Point RF:
                Area = 37.7848 mm^2
                Peak Dynamic = 0.196274 W
                Subthreshold Leakage = 0.487147 W
                Subthreshold Leakage with power gating = 0.185673 W
                Gate Leakage = 0.0316755 W
                Runtime Dynamic = 0.0178475 W

          Instruction Scheduler:
            Area = 1561.2 mm^2
            Peak Dynamic = 202642 W
            Subthreshold Leakage = 59.5387 W
            Subthreshold Leakage with power gating = 26.0252 W
            Gate Leakage = 4.31521 W
            Runtime Dynamic = 424.513 W

              Instruction Window:
                Area = 242.241 mm^2
                Peak Dynamic = 491.03 W
                Subthreshold Leakage = 18.7871 W
                Subthreshold Leakage with power gating = 10.7075 W
                Gate Leakage = 1.23925 W
                Runtime Dynamic = 1.05735 W

              FP Instruction Window:
                Area = 0.328073 mm^2
                Peak Dynamic = 2.30959 W
                Subthreshold Leakage = 0.0225127 W
                Subthreshold Leakage with power gating = 0.0116864 W
                Gate Leakage = 0.00181534 W
                Runtime Dynamic = 0.071187 W

              ROB:
                Area = 1318.63 mm^2
                Peak Dynamic = 202149 W
                Subthreshold Leakage = 40.7291 W
                Subthreshold Leakage with power gating = 15.306 W
                Gate Leakage = 3.07414 W
                Runtime Dynamic = 423.385 W

          Integer ALUs (Count: 96 ):
            Area = 7.53393 mm^2
            Peak Dynamic = 0.0388605 W
            Subthreshold Leakage = 6.43552 W
            Subthreshold Leakage with power gating = 2.41332 W
            Gate Leakage = 0.424466 W
            Runtime Dynamic = 0.143708 W

          Floating Point Units (FPUs) (Count: 2 ):
            Area = 4.6585 mm^2
            Peak Dynamic = 0.00552054 W
            Subthreshold Leakage = 0.994829 W
            Subthreshold Leakage with power gating = 0.373061 W
            Gate Leakage = 0.0656156 W
            Runtime Dynamic = 0.306462 W

          Complex ALUs (Mul/Div) (Count: 1 ):
            Area = 0.235435 mm^2
            Peak Dynamic = 0.000686789 W
            Subthreshold Leakage = 0.20111 W
            Subthreshold Leakage with power gating = 0.0754163 W
            Gate Leakage = 0.0132646 W
            Runtime Dynamic = 0.203228 W

          Results Broadcast Bus:
            Area Overhead = 0.510923 mm^2
            Peak Dynamic = 0.0414553 W
            Subthreshold Leakage = 0.985661 W
            Subthreshold Leakage with power gating = 0.369623 W
            Gate Leakage = 0.0650109 W
            Runtime Dynamic = 1.32235 W

*****************************************************************************************
Core:
      Area = 1776.72 mm^2
      Peak Dynamic = 209256 W
      Subthreshold Leakage = 76.417 W
      Subthreshold Leakage with power gating = 32.6025 W
      Gate Leakage = 5.63287 W
      Runtime Dynamic = 347.687 W

      Instruction Fetch Unit:
        Area = 47.2731 mm^2
        Peak Dynamic = 4051.5 W
        Subthreshold Leakage = 2.37932 W
        Subthreshold Leakage with power gating = 0.95452 W
        Gate Leakage = 0.23961 W
        Runtime Dynamic = 3.76158 W

          Instruction Cache:
            Area = 4.86613 mm^2
            Peak Dynamic = 0.790342 W
            Subthreshold Leakage = 0.486629 W
            Subthreshold Leakage with power gating = 0.22691 W
            Gate Leakage = 0.0421203 W
            Runtime Dynamic = 0.109861 W

          Branch Target Buffer:
            Area = 0.64954 mm^2
            Peak Dynamic = 0.177867 W
            Subthreshold Leakage = 0.0811682 W
            Subthreshold Leakage with power gating = 0.0435357 W
            Gate Leakage = 0.00272758 W
            Runtime Dynamic = 0.00253855 W

          Branch Predictor:
            Area = 0.138516 mm^2
            Peak Dynamic = 0.0597838 W
            Subthreshold Leakage = 0.0199703 W
            Subthreshold Leakage with power gating = 0.0103282 W
            Gate Leakage = 0.000757657 W
            Runtime Dynamic = 0.000871336 W

              Global Predictor:
                Area = 0.0435221 mm^2
                Peak Dynamic = 0.0168831 W
                Subthreshold Leakage = 0.00759719 W
                Subthreshold Leakage with power gating = 0.0039236 W
                Gate Leakage = 0.000278362 W
                Runtime Dynamic = 0.000258674 W

              Local Predictor:
              L1_Local Predictor:
                Area = 0.0257064 mm^2
                Peak Dynamic = 0.0142575 W
                Subthreshold Leakage = 0.00384344 W
[...]
            Gate Leakage = 0.119458 W
            Runtime Dynamic = 4.4273 W

          Instruction Decoder:
            Area = 29.7278 mm^2
            Peak Dynamic = 21.9846 W
            Subthreshold Leakage = 0.442943 W
            Subthreshold Leakage with power gating = 0.166104 W
            Gate Leakage = 0.0222493 W
            Runtime Dynamic = 0.0362454 W

      Renaming Unit:
        Area = 27.8071 mm^2
        Peak Dynamic = 2556.62 W
        Subthreshold Leakage = 0.87819 W
        Subthreshold Leakage with power gating = 0.437089 W
        Gate Leakage = 0.0906085 W
        Runtime Dynamic = 4.16813 W

          Int Front End RAT:
            Area = 19.3301 mm^2
            Peak Dynamic = 2465.83 W
            Subthreshold Leakage = 0.500294 W
            Subthreshold Leakage with power gating = 0.285168 W
            Gate Leakage = 0.0323898 W
            Runtime Dynamic = 4.05766 W

          FP Front End RAT:
            Area = 0.168486 mm^2
            Peak Dynamic = 78.3725 W
            Subthreshold Leakage = 0.0437281 W
            Subthreshold Leakage with power gating = 0.024925 W
            Gate Leakage = 0.00489731 W
            Runtime Dynamic = 0.0855158 W

          Free List:
            Area = 7.5975 mm^2
            Peak Dynamic = 7.41375 W
            Subthreshold Leakage = 0.0190978 W
            Subthreshold Leakage with power gating = 0.00884518 W
            Gate Leakage = 0.00102434 W
            Runtime Dynamic = 0.0249513 W

      Load Store Unit:
        Area = 9.47562 mm^2
        Peak Dynamic = 2.04574 W
        Subthreshold Leakage = 0.886727 W
        Subthreshold Leakage with power gating = 0.394071 W
        Gate Leakage = 0.0841218 W
        Runtime Dynamic = 0.319284 W

          Data Cache:
            Area = 6.84535 mm^2
            Peak Dynamic = 1.69568 W
            Subthreshold Leakage = 0.527675 W
            Subthreshold Leakage with power gating = 0.25085 W
            Gate Leakage = 0.0279261 W
            Runtime Dynamic = 0.23128 W

          LoadQ:
            Area = 0.0836782 mm^2
            Peak Dynamic = 0.0148355 W
            Subthreshold Leakage = 0.00941961 W
            Subthreshold Leakage with power gating = 0.00536918 W
            Gate Leakage = 0.00059896 W
            Runtime Dynamic = 0.0148356 W

          StoreQ:
            Area = 0.322079 mm^2
            Peak Dynamic = 0.0365819 W
            Subthreshold Leakage = 0.0345621 W
            Subthreshold Leakage with power gating = 0.0197004 W
            Gate Leakage = 0.00329971 W
            Runtime Dynamic = 0.0731642 W

      Memory Management Unit:
        Area = 1.10051 mm^2
        Peak Dynamic = 2.70572 W
        Subthreshold Leakage = 0.372016 W
        Subthreshold Leakage with power gating = 0.150611 W
        Gate Leakage = 0.057119 W
        Runtime Dynamic = 0.0247569 W

          Itlb:
            Area = 0.301552 mm^2
            Peak Dynamic = 0.0422054 W
            Subthreshold Leakage = 0.0413758 W
            Subthreshold Leakage with power gating = 0.0235842 W
            Gate Leakage = 0.00393464 W
            Runtime Dynamic = 0.0110683 W

          Dtlb:
            Area = 0.0879726 mm^2
            Peak Dynamic = 0.012983 W
            Subthreshold Leakage = 0.0155699 W
            Subthreshold Leakage with power gating = 0.00887485 W
            Gate Leakage = 0.00088729 W
            Runtime Dynamic = 0.0136849 W

      Execution Unit:
        Area = 1686.67 mm^2
        Peak Dynamic = 202643 W
        Subthreshold Leakage = 70.0229 W
        Subthreshold Leakage with power gating = 29.962 W
        Gate Leakage = 5.03755 W
        Runtime Dynamic = 421.812 W

          Register Files:
            Area = 111.819 mm^2
            Peak Dynamic = 0.426119 W
            Subthreshold Leakage = 1.55192 W
            Subthreshold Leakage with power gating = 0.587195 W
            Gate Leakage = 0.101689 W
            Runtime Dynamic = 0.166406 W

              Integer RF:
                Area = 74.0344 mm^2
                Peak Dynamic = 0.229845 W
                Subthreshold Leakage = 1.06477 W
                Subthreshold Leakage with power gating = 0.401522 W
                Gate Leakage = 0.0700135 W
                Runtime Dynamic = 0.148752 W

              Floating Point RF:
                Area = 37.7848 mm^2
                Peak Dynamic = 0.196274 W
                Subthreshold Leakage = 0.487147 W
                Subthreshold Leakage with power gating = 0.185673 W
                Gate Leakage = 0.0316755 W
                Runtime Dynamic = 0.0176547 W

          Instruction Scheduler:
            Area = 1561.2 mm^2
            Peak Dynamic = 202642 W
            Subthreshold Leakage = 59.5387 W
            Subthreshold Leakage with power gating = 26.0252 W
            Gate Leakage = 4.31521 W
            Runtime Dynamic = 419.685 W

              Instruction Window:
                Area = 242.241 mm^2
                Peak Dynamic = 491.03 W
                Subthreshold Leakage = 18.7871 W
                Subthreshold Leakage with power gating = 10.7075 W
                Gate Leakage = 1.23925 W
                Runtime Dynamic = 1.04593 W

              FP Instruction Window:
                Area = 0.328073 mm^2
                Peak Dynamic = 2.30959 W
                Subthreshold Leakage = 0.0225127 W
                Subthreshold Leakage with power gating = 0.0116864 W
                Gate Leakage = 0.00181534 W
                Runtime Dynamic = 0.070418 W

              ROB:
                Area = 1318.63 mm^2
                Peak Dynamic = 202149 W
                Subthreshold Leakage = 40.7291 W
                Subthreshold Leakage with power gating = 15.306 W
                Gate Leakage = 3.07414 W
                Runtime Dynamic = 418.569 W

          Integer ALUs (Count: 96 ):
            Area = 7.53393 mm^2
            Peak Dynamic = 0.0384319 W
            Subthreshold Leakage = 6.43552 W
            Subthreshold Leakage with power gating = 2.41332 W
            Gate Leakage = 0.424466 W
            Runtime Dynamic = 0.143213 W

          Floating Point Units (FPUs) (Count: 2 ):
            Area = 4.6585 mm^2
            Peak Dynamic = 0.00552054 W
            Subthreshold Leakage = 0.994829 W
            Subthreshold Leakage with power gating = 0.373061 W
            Gate Leakage = 0.0656156 W
            Runtime Dynamic = 0.306462 W

          Complex ALUs (Mul/Div) (Count: 1 ):
            Area = 0.235435 mm^2
            Peak Dynamic = 0.000686789 W
            Subthreshold Leakage = 0.20111 W
            Subthreshold Leakage with power gating = 0.0754163 W
            Gate Leakage = 0.0132646 W
            Runtime Dynamic = 0.203228 W

          Results Broadcast Bus:
            Area Overhead = 0.510923 mm^2
            Peak Dynamic = 0.0411819 W
            Subthreshold Leakage = 0.985661 W
            Subthreshold Leakage with power gating = 0.369623 W
            Gate Leakage = 0.0650109 W
            Runtime Dynamic = 1.30714 W

*****************************************************************************************
Core:
      Area = 1776.72 mm^2
      Peak Dynamic = 209256 W
      Subthreshold Leakage = 76.417 W
      Subthreshold Leakage with power gating = 32.6025 W
      Gate Leakage = 5.63287 W
      Runtime Dynamic = 398.999 W

      Instruction Fetch Unit:
        Area = 47.2731 mm^2
        Peak Dynamic = 4051.67 W
        Subthreshold Leakage = 2.37932 W
        Subthreshold Leakage with power gating = 0.95452 W
        Gate Leakage = 0.23961 W
        Runtime Dynamic = 4.28448 W

          Instruction Cache:
            Area = 4.86613 mm^2
            Peak Dynamic = 0.899084 W
            Subthreshold Leakage = 0.486629 W
            Subthreshold Leakage with power gating = 0.22691 W
            Gate Leakage = 0.0421203 W
            Runtime Dynamic = 0.130338 W

          Branch Target Buffer:
            Area = 0.64954 mm^2
            Peak Dynamic = 0.177867 W
            Subthreshold Leakage = 0.0811682 W
            Subthreshold Leakage with power gating = 0.0435357 W
            Gate Leakage = 0.00272758 W
            Runtime Dynamic = 0.00288996 W

          Branch Predictor:
            Area = 0.138516 mm^2
            Peak Dynamic = 0.0597838 W
            Subthreshold Leakage = 0.0199703 W
            Subthreshold Leakage with power gating = 0.0103282 W
            Gate Leakage = 0.000757657 W
            Runtime Dynamic = 0.000991958 W

              Global Predictor:
                Area = 0.0435221 mm^2
                Peak Dynamic = 0.0168831 W
                Subthreshold Leakage = 0.00759719 W
                Subthreshold Leakage with power gating = 0.0039236 W
                Gate Leakage = 0.000278362 W
                Runtime Dynamic = 0.000294514 W

              Local Predictor:
              L1_Local Predictor:
                Area = 0.0257064 mm^2
                Peak Dynamic = 0.0142575 W
                Subthreshold Leakage = 0.00384344 W
                Subthreshold Leakage with power gating = 0.00198631 W
                Gate Leakage = 0.000154548 W
                Runtime Dynamic = 0.000254669 W

              L2_Local Predictor:
                Area = 0.0151917 mm^2
                Peak Dynamic = 0.00527447 W
                Subthreshold Leakage = 0.00181347 W
                Subthreshold Leakage with power gating = 0.000957045 W
                Gate Leakage = 8.00196e-05 W
                Runtime Dynamic = 9.75733e-05 W

              Chooser:
                Area = 0.0435221 mm^2
                Peak Dynamic = 0.0168831 W
                Subthreshold Leakage = 0.00759719 W
                Subthreshold Leakage with power gating = 0.0039236 W
                Gate Leakage = 0.000278362 W
                Runtime Dynamic = 0.000294514 W

              RAS:
                Area = 0.0105732 mm^2
                Peak Dynamic = 0.0117602 W
                Subthreshold Leakage = 0.000932505 W
                Subthreshold Leakage with power gating = 0.000494733 W
                Gate Leakage = 4.63858e-05 W
                Runtime Dynamic = 0.00014826 W

          Instruction Buffer:
            Area = 11.1802 mm^2
            Peak Dynamic = 4028.05 W
            Subthreshold Leakage = 1.03354 W
            Subthreshold Leakage with power gating = 0.389491 W
            Gate Leakage = 0.119458 W
            Runtime Dynamic = 4.11655 W

          Instruction Decoder:
            Area = 29.7278 mm^2
            Peak Dynamic = 21.9846 W
            Subthreshold Leakage = 0.442943 W
            Subthreshold Leakage with power gating = 0.166104 W
            Gate Leakage = 0.0222493 W
            Runtime Dynamic = 0.0337014 W

      Renaming Unit:
        Area = 27.8071 mm^2
        Peak Dynamic = 2556.62 W
        Subthreshold Leakage = 0.87819 W
        Subthreshold Leakage with power gating = 0.437089 W
        Gate Leakage = 0.0906085 W
        Runtime Dynamic = 3.88155 W

          Int Front End RAT:
            Area = 19.3301 mm^2
            Peak Dynamic = 2465.83 W
            Subthreshold Leakage = 0.500294 W
            Subthreshold Leakage with power gating = 0.285168 W
            Gate Leakage = 0.0323898 W
            Runtime Dynamic = 3.7728 W

          FP Front End RAT:
            Area = 0.168486 mm^2
            Peak Dynamic = 78.3725 W
            Subthreshold Leakage = 0.0437281 W
            Subthreshold Leakage with power gating = 0.024925 W
            Gate Leakage = 0.00489731 W
            Runtime Dynamic = 0.0855158 W

          Free List:
            Area = 7.5975 mm^2
            Peak Dynamic = 7.41375 W
            Subthreshold Leakage = 0.0190978 W
            Subthreshold Leakage with power gating = 0.00884518 W
            Gate Leakage = 0.00102434 W
            Runtime Dynamic = 0.0232355 W

      Load Store Unit:
        Area = 9.47562 mm^2
        Peak Dynamic = 1.99572 W
        Subthreshold Leakage = 0.886727 W
        Subthreshold Leakage with power gating = 0.394071 W
        Gate Leakage = 0.0841218 W
        Runtime Dynamic = 0.299635 W

          Data Cache:
            Area = 6.84535 mm^2
            Peak Dynamic = 1.66731 W
            Subthreshold Leakage = 0.527675 W
            Subthreshold Leakage with power gating = 0.25085 W
            Gate Leakage = 0.0279261 W
            Runtime Dynamic = 0.217075 W

          LoadQ:
            Area = 0.0836782 mm^2
            Peak Dynamic = 0.0139178 W
            Subthreshold Leakage = 0.00941961 W
            Subthreshold Leakage with power gating = 0.00536918 W
            Gate Leakage = 0.00059896 W
            Runtime Dynamic = 0.0139179 W

          StoreQ:
            Area = 0.322079 mm^2
            Peak Dynamic = 0.0343189 W
            Subthreshold Leakage = 0.0345621 W
            Subthreshold Leakage with power gating = 0.0197004 W
            Gate Leakage = 0.00329971 W
            Runtime Dynamic = 0.0686381 W

      Memory Management Unit:
        Area = 1.10051 mm^2
        Peak Dynamic = 2.69272 W
        Subthreshold Leakage = 0.372016 W
        Subthreshold Leakage with power gating = 0.150611 W
        Gate Leakage = 0.057119 W
        Runtime Dynamic = 0.0228834 W

          Itlb:
            Area = 0.301552 mm^2
            Peak Dynamic = 0.0392431 W
            Subthreshold Leakage = 0.0413758 W
            Subthreshold Leakage with power gating = 0.0235842 W
            Gate Leakage = 0.00393464 W
            Runtime Dynamic = 0.0100848 W

          Dtlb:
            Area = 0.0879726 mm^2
            Peak Dynamic = 0.0121799 W
            Subthreshold Leakage = 0.0155699 W
            Subthreshold Leakage with power gating = 0.00887485 W
            Gate Leakage = 0.00088729 W
            Runtime Dynamic = 0.0127949 W

      Execution Unit:
        Area = 1686.67 mm^2
        Peak Dynamic = 202643 W
        Subthreshold Leakage = 70.0229 W
        Subthreshold Leakage with power gating = 29.962 W
        Gate Leakage = 5.03755 W
        Runtime Dynamic = 390.51 W

          Register Files:
            Area = 111.819 mm^2
            Peak Dynamic = 0.41593 W
            Subthreshold Leakage = 1.55192 W
            Subthreshold Leakage with power gating = 0.587195 W
            Gate Leakage = 0.101689 W
            Runtime Dynamic = 0.154726 W

              Integer RF:
                Area = 74.0344 mm^2
                Peak Dynamic = 0.219656 W
                Subthreshold Leakage = 1.06477 W
                Subthreshold Leakage with power gating = 0.401522 W
                Gate Leakage = 0.0700135 W
                Runtime Dynamic = 0.13831 W

              Floating Point RF:
                Area = 37.7848 mm^2
                Peak Dynamic = 0.196274 W
                Subthreshold Leakage = 0.487147 W
                Subthreshold Leakage with power gating = 0.185673 W
                Gate Leakage = 0.0316755 W
                Runtime Dynamic = 0.0164151 W

          Instruction Scheduler:
            Area = 1561.2 mm^2
            Peak Dynamic = 202642 W
            Subthreshold Leakage = 59.5387 W
            Subthreshold Leakage with power gating = 26.0252 W
            Gate Leakage = 4.31521 W
            Runtime Dynamic = 388.497 W

              Instruction Window:
                Area = 242.241 mm^2
                Peak Dynamic = 491.03 W
                Subthreshold Leakage = 18.7871 W
                Subthreshold Leakage with power gating = 10.7075 W
                Gate Leakage = 1.23925 W
                Runtime Dynamic = 0.972519 W

              FP Instruction Window:
                Area = 0.328073 mm^2
                Peak Dynamic = 2.30959 W
                Subthreshold Leakage = 0.0225127 W
                Subthreshold Leakage with power gating = 0.0116864 W
                Gate Leakage = 0.00181534 W
                Runtime Dynamic = 0.0654751 W

              ROB:
                Area = 1318.63 mm^2
                Peak Dynamic = 202149 W
                Subthreshold Leakage = 40.7291 W
                Subthreshold Leakage with power gating = 15.306 W
                Gate Leakage = 3.07414 W
                Runtime Dynamic = 387.459 W

          Integer ALUs (Count: 96 ):
            Area = 7.53393 mm^2
            Peak Dynamic = 0.0356817 W
            Subthreshold Leakage = 6.43552 W
            Subthreshold Leakage with power gating = 2.41332 W
            Gate Leakage = 0.424466 W
            Runtime Dynamic = 0.140017 W

          Floating Point Units (FPUs) (Count: 2 ):
            Area = 4.6585 mm^2
            Peak Dynamic = 0.00552054 W
            Subthreshold Leakage = 0.994829 W
            Subthreshold Leakage with power gating = 0.373061 W
            Gate Leakage = 0.0656156 W
            Runtime Dynamic = 0.306462 W

          Complex ALUs (Mul/Div) (Count: 1 ):
            Area = 0.235435 mm^2
            Peak Dynamic = 0.000686789 W
            Subthreshold Leakage = 0.20111 W
            Subthreshold Leakage with power gating = 0.0754163 W
            Gate Leakage = 0.0132646 W
            Runtime Dynamic = 0.203228 W

          Results Broadcast Bus:
            Area Overhead = 0.510923 mm^2
            Peak Dynamic = 0.0394269 W
            Subthreshold Leakage = 0.985661 W
            Subthreshold Leakage with power gating = 0.369623 W
            Gate Leakage = 0.0650109 W
            Runtime Dynamic = 1.20896 W

*****************************************************************************************
L2
      Area = 22.2273 mm^2
      Peak Dynamic = 0.337116 W
      Subthreshold Leakage = 2.01996 W
      Subthreshold Leakage with power gating = 0.908099 W
      Gate Leakage = 0.0518439 W
      Runtime Dynamic = 0.100356 W

*****************************************************************************************
L2
      Area = 22.2273 mm^2
      Peak Dynamic = 0.294702 W
      Subthreshold Leakage = 2.01996 W
      Subthreshold Leakage with power gating = 0.908099 W
      Gate Leakage = 0.0518439 W
      Runtime Dynamic = 0.0704599 W

*****************************************************************************************
L2
      Area = 22.2273 mm^2
      Peak Dynamic = 0.326923 W
      Subthreshold Leakage = 2.01996 W
      Subthreshold Leakage with power gating = 0.908099 W
      Gate Leakage = 0.0518439 W
      Runtime Dynamic = 0.103193 W

*****************************************************************************************
L2
      Area = 22.2273 mm^2
      Peak Dynamic = 0.302222 W
      Subthreshold Leakage = 2.01996 W
      Subthreshold Leakage with power gating = 0.908099 W
      Gate Leakage = 0.0518439 W
      Runtime Dynamic = 0.0745972 W

*****************************************************************************************
L3
      Area = 61.9075 mm^2
      Peak Dynamic = 0.611315 W
      Subthreshold Leakage = 6.80085 W
      Subthreshold Leakage with power gating = 3.32364 W
      Gate Leakage = 0.0484137 W
      Runtime Dynamic = 0.201261 W

*****************************************************************************************
L3
      Area = 61.9075 mm^2
      Peak Dynamic = 0.60624 W
      Subthreshold Leakage = 6.80085 W
      Subthreshold Leakage with power gating = 3.32364 W
      Gate Leakage = 0.0484137 W
      Runtime Dynamic = 0.215413 W

*****************************************************************************************
BUSES
      Area = 31.9601 mm^2
      Peak Dynamic = 61.2135 W
      Subthreshold Leakage = 0.894086 W
      Subthreshold Leakage with power gating = 0.335282 W
      Gate Leakage = 0.0857398 W
      Runtime Dynamic = 6.84132 W

      Bus: 
        Area = 31.9601 mm^2
        Peak Dynamic = 61.2135 W
        Subthreshold Leakage = 0.894086 W
        Subthreshold Leakage with power gating = 0.335282 W
        Gate Leakage = 0.0857398 W
        Runtime Dynamic = 6.84132 W

*****************************************************************************************
