McPAT (version 1.0 of Aug, 2013) is computing the target processor...
 
Warning: InstBuffer array structure cannot satisfy latency constraint.
Warning: ReorderBuffer array structure cannot satisfy throughput constraint.
Warning: ReorderBuffer array structure cannot satisfy latency constraint.
Warning: InstBuffer array structure cannot satisfy latency constraint.
Warning: ReorderBuffer array structure cannot satisfy throughput constraint.
Warning: ReorderBuffer array structure cannot satisfy latency constraint.
Warning: InstBuffer array structure cannot satisfy latency constraint.
Warning: ReorderBuffer array structure cannot satisfy throughput constraint.
Warning: ReorderBuffer array structure cannot satisfy latency constraint.
Warning: InstBuffer array structure cannot satisfy latency constraint.
Warning: ReorderBuffer array structure cannot satisfy throughput constraint.
Warning: ReorderBuffer array structure cannot satisfy latency constraint.
Warning: InstBuffer array structure cannot satisfy latency constraint.
Warning: ReorderBuffer array structure cannot satisfy throughput constraint.
Warning: ReorderBuffer array structure cannot satisfy latency constraint.
Warning: InstBuffer array structure cannot satisfy latency constraint.
Warning: ReorderBuffer array structure cannot satisfy throughput constraint.
Warning: ReorderBuffer array structure cannot satisfy latency constraint.
Warning: InstBuffer array structure cannot satisfy latency constraint.
Warning: ReorderBuffer array structure cannot satisfy throughput constraint.
Warning: ReorderBuffer array structure cannot satisfy latency constraint.
Warning: InstBuffer array structure cannot satisfy latency constraint.
Warning: ReorderBuffer array structure cannot satisfy throughput constraint.
Warning: ReorderBuffer array structure cannot satisfy latency constraint.
Warning: InstBuffer array structure cannot satisfy latency constraint.
Warning: ReorderBuffer array structure cannot satisfy throughput constraint.
Warning: ReorderBuffer array structure cannot satisfy latency constraint.
Warning: InstBuffer array structure cannot satisfy latency constraint.
Warning: ReorderBuffer array structure cannot satisfy throughput constraint.
Warning: ReorderBuffer array structure cannot satisfy latency constraint.
Warning: InstBuffer array structure cannot satisfy latency constraint.
Warning: ReorderBuffer array structure cannot satisfy throughput constraint.
Warning: ReorderBuffer array structure cannot satisfy latency constraint.
Warning: InstBuffer array structure cannot satisfy latency constraint.
Warning: ReorderBuffer array structure cannot satisfy throughput constraint.
Warning: ReorderBuffer array structure cannot satisfy latency constraint.
Warning: InstBuffer array structure cannot satisfy latency constraint.
Warning: ReorderBuffer array structure cannot satisfy throughput constraint.
Warning: ReorderBuffer array structure cannot satisfy latency constraint.
Warning: InstBuffer array structure cannot satisfy latency constraint.
Warning: ReorderBuffer array structure cannot satisfy throughput constraint.
Warning: ReorderBuffer array structure cannot satisfy latency constraint.
Warning: InstBuffer array structure cannot satisfy latency constraint.
Warning: ReorderBuffer array structure cannot satisfy throughput constraint.
Warning: ReorderBuffer array structure cannot satisfy latency constraint.
Warning: InstBuffer array structure cannot satisfy latency constraint.
Warning: ReorderBuffer array structure cannot satisfy throughput constraint.
Warning: ReorderBuffer array structure cannot satisfy latency constraint.

McPAT (version 1.0 of Aug, 2013) results  (current print level is 5)
*****************************************************************************************
  Technology 45 nm
  Using Long Channel Devices When Appropriate
  Interconnect metal projection= aggressive interconnect technology projection
  Core clock Rate(MHz) 2660

*****************************************************************************************
Processor: 
  Area = 28672.2 mm^2
  Peak Power = 3.34951e+06 W
  Total Leakage = 1335.76 W
  Peak Dynamic = 3.34817e+06 W
  Subthreshold Leakage = 1245.25 W
  Subthreshold Leakage with power gating = 533.346 W
  Gate Leakage = 90.5158 W
  Runtime Dynamic = 5564.96 W

  Total Cores: 16 cores 
  Device Type= ITRS high performance device type
    Area = 28427.6 mm^2
    Peak Dynamic = 3.34809e+06 W
    Subthreshold Leakage = 1222.67 W
    Subthreshold Leakage with power gating = 521.64 W
    Gate Leakage = 90.1258 W
    Runtime Dynamic = 5556.05 W

  Total L2s: 
  Device Type= ITRS high performance device type
    Area = 88.9093 mm^2
    Peak Dynamic = 1.42927 W
    Subthreshold Leakage = 8.07986 W
    Subthreshold Leakage with power gating = 3.6324 W
    Gate Leakage = 0.207375 W
    Runtime Dynamic = 0.292357 W

  Total L3s: 
  Device Type= ITRS high performance device type
    Area = 123.815 mm^2
    Peak Dynamic = 1.35951 W
    Subthreshold Leakage = 13.6017 W
    Subthreshold Leakage with power gating = 6.64728 W
    Gate Leakage = 0.0968273 W
    Runtime Dynamic = 0.382718 W

  Total NoCs (Network/Bus): 
  Device Type= ITRS high performance device type
    Area = 31.9601 mm^2
    Peak Dynamic = 75.0166 W
    Subthreshold Leakage = 0.894086 W
    Subthreshold Leakage with power gating = 0.335282 W
    Gate Leakage = 0.0857398 W
    Runtime Dynamic = 8.23718 W

*****************************************************************************************
Core:
      Area = 1776.72 mm^2
      Peak Dynamic = 209256 W
      Subthreshold Leakage = 76.417 W
      Subthreshold Leakage with power gating = 32.6025 W
      Gate Leakage = 5.63287 W
      Runtime Dynamic = 400.217 W

      Instruction Fetch Unit:
        Area = 47.2731 mm^2
        Peak Dynamic = 4051.74 W
        Subthreshold Leakage = 2.37932 W
        Subthreshold Leakage with power gating = 0.95452 W
        Gate Leakage = 0.23961 W
        Runtime Dynamic = 4.56093 W

          Instruction Cache:
            Area = 4.86613 mm^2
            Peak Dynamic = 0.947773 W
            Subthreshold Leakage = 0.486629 W
            Subthreshold Leakage with power gating = 0.22691 W
            Gate Leakage = 0.0421203 W
            Runtime Dynamic = 0.181572 W

          Branch Target Buffer:
            Area = 0.64954 mm^2
            Peak Dynamic = 0.177867 W
            Subthreshold Leakage = 0.0811682 W
            Subthreshold Leakage with power gating = 0.0435357 W
            Gate Leakage = 0.00272758 W
            Runtime Dynamic = 0.00324188 W

          Branch Predictor:
            Area = 0.138516 mm^2
            Peak Dynamic = 0.0597838 W
            Subthreshold Leakage = 0.0199703 W
            Subthreshold Leakage with power gating = 0.0103282 W
            Gate Leakage = 0.000757657 W
            Runtime Dynamic = 0.00110159 W

              Global Predictor:
                Area = 0.0435221 mm^2
                Peak Dynamic = 0.0168831 W
                Subthreshold Leakage = 0.00759719 W
                Subthreshold Leakage with power gating = 0.0039236 W
                Gate Leakage = 0.000278362 W
                Runtime Dynamic = 0.000330013 W

              Local Predictor:
              L1_Local Predictor:
                Area = 0.0257064 mm^2
                Peak Dynamic = 0.0142575 W
                Subthreshold Leakage = 0.00384344 W
                Subthreshold Leakage with power gating = 0.00198631 W
                Gate Leakage = 0.000154548 W
                Runtime Dynamic = 0.000285266 W

              L2_Local Predictor:
                Area = 0.0151917 mm^2
                Peak Dynamic = 0.00527447 W
                Subthreshold Leakage = 0.00181347 W
                Subthreshold Leakage with power gating = 0.000957045 W
                Gate Leakage = 8.00196e-05 W
                Runtime Dynamic = 0.000109241 W

              Chooser:
                Area = 0.0435221 mm^2
                Peak Dynamic = 0.0168831 W
                Subthreshold Leakage = 0.00759719 W
                Subthreshold Leakage with power gating = 0.0039236 W
                Gate Leakage = 0.000278362 W
                Runtime Dynamic = 0.000330013 W

              RAS:
                Area = 0.0105732 mm^2
                Peak Dynamic = 0.0117602 W
                Subthreshold Leakage = 0.000932505 W
                Subthreshold Leakage with power gating = 0.000494733 W
                Gate Leakage = 4.63858e-05 W
                Runtime Dynamic = 0.0001563 W

          Instruction Buffer:
            Area = 11.1802 mm^2
            Peak Dynamic = 4028.05 W
            Subthreshold Leakage = 1.03354 W
            Subthreshold Leakage with power gating = 0.389491 W
            Gate Leakage = 0.119458 W
            Runtime Dynamic = 4.33948 W

          Instruction Decoder:
            Area = 29.7278 mm^2
            Peak Dynamic = 21.9846 W
            Subthreshold Leakage = 0.442943 W
            Subthreshold Leakage with power gating = 0.166104 W
            Gate Leakage = 0.0222493 W
            Runtime Dynamic = 0.0355265 W

      Renaming Unit:
        Area = 27.8071 mm^2
        Peak Dynamic = 2556.62 W
        Subthreshold Leakage = 0.87819 W
        Subthreshold Leakage with power gating = 0.437089 W
        Gate Leakage = 0.0906085 W
        Runtime Dynamic = 4.12309 W

          Int Front End RAT:
            Area = 19.3301 mm^2
            Peak Dynamic = 2465.83 W
            Subthreshold Leakage = 0.500294 W
            Subthreshold Leakage with power gating = 0.285168 W
            Gate Leakage = 0.0323898 W
            Runtime Dynamic = 3.97637 W

          FP Front End RAT:
            Area = 0.168486 mm^2
            Peak Dynamic = 78.3725 W
            Subthreshold Leakage = 0.0437281 W
            Subthreshold Leakage with power gating = 0.024925 W
            Gate Leakage = 0.00489731 W
            Runtime Dynamic = 0.122044 W

          Free List:
            Area = 7.5975 mm^2
            Peak Dynamic = 7.41375 W
            Subthreshold Leakage = 0.0190978 W
            Subthreshold Leakage with power gating = 0.00884518 W
            Gate Leakage = 0.00102434 W
            Runtime Dynamic = 0.0246824 W

      Load Store Unit:
        Area = 9.47562 mm^2
        Peak Dynamic = 2.10627 W
        Subthreshold Leakage = 0.886727 W
        Subthreshold Leakage with power gating = 0.394071 W
        Gate Leakage = 0.0841218 W
        Runtime Dynamic = 0.36972 W

          Data Cache:
            Area = 6.84535 mm^2
            Peak Dynamic = 1.73001 W
            Subthreshold Leakage = 0.527675 W
            Subthreshold Leakage with power gating = 0.25085 W
            Gate Leakage = 0.0279261 W
            Runtime Dynamic = 0.275133 W

          LoadQ:
            Area = 0.0836782 mm^2
            Peak Dynamic = 0.0159461 W
            Subthreshold Leakage = 0.00941961 W
            Subthreshold Leakage with power gating = 0.00536918 W
            Gate Leakage = 0.00059896 W
            Runtime Dynamic = 0.0159461 W

          StoreQ:
            Area = 0.322079 mm^2
            Peak Dynamic = 0.0393203 W
            Subthreshold Leakage = 0.0345621 W
            Subthreshold Leakage with power gating = 0.0197004 W
            Gate Leakage = 0.00329971 W
            Runtime Dynamic = 0.0786407 W

      Memory Management Unit:
        Area = 1.10051 mm^2
        Peak Dynamic = 2.71704 W
        Subthreshold Leakage = 0.372016 W
        Subthreshold Leakage with power gating = 0.150611 W
        Gate Leakage = 0.057119 W
        Runtime Dynamic = 0.0291155 W

          Itlb:
            Area = 0.301552 mm^2
            Peak Dynamic = 0.0413682 W
            Subthreshold Leakage = 0.0413758 W
            Subthreshold Leakage with power gating = 0.0235842 W
            Gate Leakage = 0.00393464 W
            Runtime Dynamic = 0.0140459 W

          Dtlb:
            Area = 0.0879726 mm^2
            Peak Dynamic = 0.0139549 W
            Subthreshold Leakage = 0.0155699 W
            Subthreshold Leakage with power gating = 0.00887485 W
            Gate Leakage = 0.00088729 W
            Runtime Dynamic = 0.0150689 W

      Execution Unit:
        Area = 1686.67 mm^2
        Peak Dynamic = 202643 W
        Subthreshold Leakage = 70.0229 W
        Subthreshold Leakage with power gating = 29.962 W
        Gate Leakage = 5.03755 W
        Runtime Dynamic = 391.135 W

          Register Files:
            Area = 111.819 mm^2
            Peak Dynamic = 0.596799 W
            Subthreshold Leakage = 1.55192 W
            Subthreshold Leakage with power gating = 0.587195 W
            Gate Leakage = 0.101689 W
            Runtime Dynamic = 0.163106 W

              Integer RF:
                Area = 74.0344 mm^2
                Peak Dynamic = 0.316689 W
                Subthreshold Leakage = 1.06477 W
                Subthreshold Leakage with power gating = 0.401522 W
                Gate Leakage = 0.0700135 W
                Runtime Dynamic = 0.145801 W

              Floating Point RF:
                Area = 37.7848 mm^2
                Peak Dynamic = 0.280109 W
                Subthreshold Leakage = 0.487147 W
                Subthreshold Leakage with power gating = 0.185673 W
                Gate Leakage = 0.0316755 W
                Runtime Dynamic = 0.0173046 W

          Instruction Scheduler:
            Area = 1561.2 mm^2
            Peak Dynamic = 202642 W
            Subthreshold Leakage = 59.5387 W
            Subthreshold Leakage with power gating = 26.0252 W
            Gate Leakage = 4.31521 W
            Runtime Dynamic = 389.129 W

              Instruction Window:
                Area = 242.241 mm^2
                Peak Dynamic = 491.03 W
                Subthreshold Leakage = 18.7871 W
                Subthreshold Leakage with power gating = 10.7075 W
                Gate Leakage = 1.23925 W
                Runtime Dynamic = 1.02518 W

              FP Instruction Window:
                Area = 0.328073 mm^2
                Peak Dynamic = 2.30959 W
                Subthreshold Leakage = 0.0225127 W
                Subthreshold Leakage with power gating = 0.0116864 W
                Gate Leakage = 0.00181534 W
                Runtime Dynamic = 0.0690213 W

              ROB:
                Area = 1318.63 mm^2
                Peak Dynamic = 202149 W
                Subthreshold Leakage = 40.7291 W
                Subthreshold Leakage with power gating = 15.306 W
                Gate Leakage = 3.07414 W
                Runtime Dynamic = 388.035 W

          Integer ALUs (Count: 96 ):
            Area = 7.53393 mm^2
            Peak Dynamic = 0.0373247 W
            Subthreshold Leakage = 6.43552 W
            Subthreshold Leakage with power gating = 2.41332 W
            Gate Leakage = 0.424466 W
            Runtime Dynamic = 0.139005 W

          Floating Point Units (FPUs) (Count: 2 ):
            Area = 4.6585 mm^2
            Peak Dynamic = 0.00787853 W
            Subthreshold Leakage = 0.994829 W
            Subthreshold Leakage with power gating = 0.373061 W
            Gate Leakage = 0.0656156 W
            Runtime Dynamic = 0.307499 W

          Complex ALUs (Mul/Div) (Count: 1 ):
            Area = 0.235435 mm^2
            Peak Dynamic = 0.00140097 W
            Subthreshold Leakage = 0.20111 W
            Subthreshold Leakage with power gating = 0.0754163 W
            Gate Leakage = 0.0132646 W
            Runtime Dynamic = 0.203789 W

          Results Broadcast Bus:
            Area Overhead = 0.510923 mm^2
            Peak Dynamic = 0.0577985 W
            Subthreshold Leakage = 0.985661 W
            Subthreshold Leakage with power gating = 0.369623 W
            Gate Leakage = 0.0650109 W
            Runtime Dynamic = 1.19198 W

*****************************************************************************************
Core:
      Area = 1776.72 mm^2
      Peak Dynamic = 209256 W
      Subthreshold Leakage = 76.417 W
      Subthreshold Leakage with power gating = 32.6025 W
      Gate Leakage = 5.63287 W
      Runtime Dynamic = 372.301 W

      Instruction Fetch Unit:
        Area = 47.2731 mm^2
        Peak Dynamic = 4051.64 W
        Subthreshold Leakage = 2.37932 W
        Subthreshold Leakage with power gating = 0.95452 W
        Gate Leakage = 0.23961 W
        Runtime Dynamic = 4.24344 W

          Instruction Cache:
            Area = 4.86613 mm^2
            Peak Dynamic = 0.882277 W
            Subthreshold Leakage = 0.486629 W
            Subthreshold Leakage with power gating = 0.22691 W
            Gate Leakage = 0.0421203 W
            Runtime Dynamic = 0.166791 W

          Branch Target Buffer:
            Area = 0.64954 mm^2
            Peak Dynamic = 0.177867 W
            Subthreshold Leakage = 0.0811682 W
            Subthreshold Leakage with power gating = 0.0435357 W
            Gate Leakage = 0.00272758 W
            Runtime Dynamic = 0.00298753 W

          Branch Predictor:
            Area = 0.138516 mm^2
            Peak Dynamic = 0.0597838 W
            Subthreshold Leakage = 0.0199703 W
            Subthreshold Leakage with power gating = 0.0103282 W
            Gate Leakage = 0.000757657 W
            Runtime Dynamic = 0.00101662 W

              Global Predictor:
                Area = 0.0435221 mm^2
                Peak Dynamic = 0.0168831 W
                Subthreshold Leakage = 0.00759719 W
                Subthreshold Leakage with power gating = 0.0039236 W
                Gate Leakage = 0.000278362 W
                Runtime Dynamic = 0.000304119 W

              Local Predictor:
              L1_Local Predictor:
                Area = 0.0257064 mm^2
                Peak Dynamic = 0.0142575 W
                Subthreshold Leakage = 0.00384344 W
                Subthreshold Leakage with power gating = 0.00198631 W
                Gate Leakage = 0.000154548 W
                Runtime Dynamic = 0.000262882 W

              L2_Local Predictor:
                Area = 0.0151917 mm^2
                Peak Dynamic = 0.00527447 W
                Subthreshold Leakage = 0.00181347 W
                Subthreshold Leakage with power gating = 0.000957045 W
                Gate Leakage = 8.00196e-05 W
                Runtime Dynamic = 0.000100669 W

              Chooser:
                Area = 0.0435221 mm^2
                Peak Dynamic = 0.0168831 W
                Subthreshold Leakage = 0.00759719 W
                Subthreshold Leakage with power gating = 0.0039236 W
                Gate Leakage = 0.000278362 W
                Runtime Dynamic = 0.000304119 W

              RAS:
                Area = 0.0105732 mm^2
                Peak Dynamic = 0.0117602 W
                Subthreshold Leakage = 0.000932505 W
                Subthreshold Leakage with power gating = 0.000494733 W
                Gate Leakage = 4.63858e-05 W
                Runtime Dynamic = 0.000145496 W

          Instruction Buffer:
            Area = 11.1802 mm^2
            Peak Dynamic = 4028.05 W
            Subthreshold Leakage = 1.03354 W
            Subthreshold Leakage with power gating = 0.389491 W
            Gate Leakage = 0.119458 W
            Runtime Dynamic = 4.03958 W

          Instruction Decoder:
            Area = 29.7278 mm^2
            Peak Dynamic = 21.9846 W
            Subthreshold Leakage = 0.442943 W
            Subthreshold Leakage with power gating = 0.166104 W
            Gate Leakage = 0.0222493 W
            Runtime Dynamic = 0.0330712 W

      Renaming Unit:
        Area = 27.8071 mm^2
        Peak Dynamic = 2556.62 W
        Subthreshold Leakage = 0.87819 W
        Subthreshold Leakage with power gating = 0.437089 W
        Gate Leakage = 0.0906085 W
        Runtime Dynamic = 3.84661 W

          Int Front End RAT:
            Area = 19.3301 mm^2
            Peak Dynamic = 2465.83 W
            Subthreshold Leakage = 0.500294 W
            Subthreshold Leakage with power gating = 0.285168 W
            Gate Leakage = 0.0323898 W
            Runtime Dynamic = 3.70154 W

          FP Front End RAT:
            Area = 0.168486 mm^2
            Peak Dynamic = 78.3725 W
            Subthreshold Leakage = 0.0437281 W
            Subthreshold Leakage with power gating = 0.024925 W
            Gate Leakage = 0.00489731 W
            Runtime Dynamic = 0.122044 W

          Free List:
            Area = 7.5975 mm^2
            Peak Dynamic = 7.41375 W
            Subthreshold Leakage = 0.0190978 W
            Subthreshold Leakage with power gating = 0.00884518 W
            Gate Leakage = 0.00102434 W
            Runtime Dynamic = 0.0230264 W

      Load Store Unit:
        Area = 9.47562 mm^2
        Peak Dynamic = 2.04818 W
        Subthreshold Leakage = 0.886727 W
        Subthreshold Leakage with power gating = 0.394071 W
        Gate Leakage = 0.0841218 W
        Runtime Dynamic = 0.313408 W

          Data Cache:
            Area = 6.84535 mm^2
            Peak Dynamic = 1.69706 W
            Subthreshold Leakage = 0.527675 W
            Subthreshold Leakage with power gating = 0.25085 W
            Gate Leakage = 0.0279261 W
            Runtime Dynamic = 0.225142 W

          LoadQ:
            Area = 0.0836782 mm^2
            Peak Dynamic = 0.0148802 W
            Subthreshold Leakage = 0.00941961 W
            Subthreshold Leakage with power gating = 0.00536918 W
            Gate Leakage = 0.00059896 W
            Runtime Dynamic = 0.0148803 W

          StoreQ:
            Area = 0.322079 mm^2
            Peak Dynamic = 0.0366922 W
            Subthreshold Leakage = 0.0345621 W
            Subthreshold Leakage with power gating = 0.0197004 W
            Gate Leakage = 0.00329971 W
            Runtime Dynamic = 0.0733847 W

      Memory Management Unit:
        Area = 1.10051 mm^2
        Peak Dynamic = 2.70252 W
        Subthreshold Leakage = 0.372016 W
        Subthreshold Leakage with power gating = 0.150611 W
        Gate Leakage = 0.057119 W
        Runtime Dynamic = 0.0267384 W

          Itlb:
            Area = 0.301552 mm^2
            Peak Dynamic = 0.0385095 W
            Subthreshold Leakage = 0.0413758 W
            Subthreshold Leakage with power gating = 0.0235842 W
            Gate Leakage = 0.00393464 W
            Runtime Dynamic = 0.0129025 W

          Dtlb:
            Area = 0.0879726 mm^2
            Peak Dynamic = 0.0130222 W
            Subthreshold Leakage = 0.0155699 W
            Subthreshold Leakage with power gating = 0.00887485 W
            Gate Leakage = 0.00088729 W
            Runtime Dynamic = 0.0138352 W

      Execution Unit:
        Area = 1686.67 mm^2
        Peak Dynamic = 202643 W
        Subthreshold Leakage = 70.0229 W
        Subthreshold Leakage with power gating = 29.962 W
        Gate Leakage = 5.03755 W
        Runtime Dynamic = 363.871 W

          Register Files:
            Area = 111.819 mm^2
            Peak Dynamic = 0.586874 W
            Subthreshold Leakage = 1.55192 W
            Subthreshold Leakage with power gating = 0.587195 W
            Gate Leakage = 0.101689 W
            Runtime Dynamic = 0.151833 W

              Integer RF:
                Area = 74.0344 mm^2
                Peak Dynamic = 0.306765 W
                Subthreshold Leakage = 1.06477 W
                Subthreshold Leakage with power gating = 0.401522 W
                Gate Leakage = 0.0700135 W
                Runtime Dynamic = 0.135724 W

              Floating Point RF:
                Area = 37.7848 mm^2
                Peak Dynamic = 0.280109 W
                Subthreshold Leakage = 0.487147 W
                Subthreshold Leakage with power gating = 0.185673 W
                Gate Leakage = 0.0316755 W
                Runtime Dynamic = 0.0161087 W

          Instruction Scheduler:
            Area = 1561.2 mm^2
            Peak Dynamic = 202642 W
            Subthreshold Leakage = 59.5387 W
            Subthreshold Leakage with power gating = 26.0252 W
            Gate Leakage = 4.31521 W
            Runtime Dynamic = 361.961 W

              Instruction Window:
                Area = 242.241 mm^2
                Peak Dynamic = 491.03 W
                Subthreshold Leakage = 18.7871 W
                Subthreshold Leakage with power gating = 10.7075 W
                Gate Leakage = 1.23925 W
                Runtime Dynamic = 0.954333 W

              FP Instruction Window:
                Area = 0.328073 mm^2
                Peak Dynamic = 2.30959 W
                Subthreshold Leakage = 0.0225127 W
                Subthreshold Leakage with power gating = 0.0116864 W
                Gate Leakage = 0.00181534 W
                Runtime Dynamic = 0.064251 W

              ROB:
                Area = 1318.63 mm^2
                Peak Dynamic = 202149 W
                Subthreshold Leakage = 40.7291 W
                Subthreshold Leakage with power gating = 15.306 W
                Gate Leakage = 3.07414 W
                Runtime Dynamic = 360.942 W

          Integer ALUs (Count: 96 ):
            Area = 7.53393 mm^2
            Peak Dynamic = 0.0346459 W
            Subthreshold Leakage = 6.43552 W
            Subthreshold Leakage with power gating = 2.41332 W
            Gate Leakage = 0.424466 W
            Runtime Dynamic = 0.136353 W

          Floating Point Units (FPUs) (Count: 2 ):
            Area = 4.6585 mm^2
            Peak Dynamic = 0.00787853 W
            Subthreshold Leakage = 0.994829 W
            Subthreshold Leakage with power gating = 0.373061 W
            Gate Leakage = 0.0656156 W
            Runtime Dynamic = 0.307499 W

          Complex ALUs (Mul/Div) (Count: 1 ):
            Area = 0.235435 mm^2
            Peak Dynamic = 0.00140097 W
            Subthreshold Leakage = 0.20111 W
            Subthreshold Leakage with power gating = 0.0754163 W
            Gate Leakage = 0.0132646 W
            Runtime Dynamic = 0.203789 W

          Results Broadcast Bus:
            Area Overhead = 0.510923 mm^2
            Peak Dynamic = 0.0560892 W
            Subthreshold Leakage = 0.985661 W
            Subthreshold Leakage with power gating = 0.369623 W
            Gate Leakage = 0.0650109 W
            Runtime Dynamic = 1.11053 W

*****************************************************************************************
Core:
      Area = 1776.72 mm^2
      Peak Dynamic = 209256 W
      Subthreshold Leakage = 76.417 W
      Subthreshold Leakage with power gating = 32.6025 W
      Gate Leakage = 5.63287 W
      Runtime Dynamic = 368.486 W

      Instruction Fetch Unit:
        Area = 47.2731 mm^2
        Peak Dynamic = 4051.63 W
        Subthreshold Leakage = 2.37932 W
        Subthreshold Leakage with power gating = 0.95452 W
        Gate Leakage = 0.23961 W
        Runtime Dynamic = 4.19999 W

          Instruction Cache:
            Area = 4.86613 mm^2
            Peak Dynamic = 0.873305 W
            Subthreshold Leakage = 0.486629 W
            Subthreshold Leakage with power gating = 0.22691 W
            Gate Leakage = 0.0421203 W
            Runtime Dynamic = 0.164765 W

          Branch Target Buffer:
            Area = 0.64954 mm^2
            Peak Dynamic = 0.177867 W
            Subthreshold Leakage = 0.0811682 W
            Subthreshold Leakage with power gating = 0.0435357 W
            Gate Leakage = 0.00272758 W
            Runtime Dynamic = 0.00295279 W

          Branch Predictor:
            Area = 0.138516 mm^2
            Peak Dynamic = 0.0597838 W
            Subthreshold Leakage = 0.0199703 W
            Subthreshold Leakage with power gating = 0.0103282 W
            Gate Leakage = 0.000757657 W
            Runtime Dynamic = 0.00100507 W

              Global Predictor:
                Area = 0.0435221 mm^2
                Peak Dynamic = 0.0168831 W
                Subthreshold Leakage = 0.00759719 W
                Subthreshold Leakage with power gating = 0.0039236 W
                Gate Leakage = 0.000278362 W
                Runtime Dynamic = 0.000300604 W

              Local Predictor:
              L1_Local Predictor:
                Area = 0.0257064 mm^2
                Peak Dynamic = 0.0142575 W
                Subthreshold Leakage = 0.00384344 W
                Subthreshold Leakage with power gating = 0.00198631 W
                Gate Leakage = 0.000154548 W
                Runtime Dynamic = 0.000259849 W

              L2_Local Predictor:
                Area = 0.0151917 mm^2
                Peak Dynamic = 0.00527447 W
                Subthreshold Leakage = 0.00181347 W
                Subthreshold Leakage with power gating = 0.000957045 W
                Gate Leakage = 8.00196e-05 W
                Runtime Dynamic = 9.95105e-05 W

              Chooser:
                Area = 0.0435221 mm^2
                Peak Dynamic = 0.0168831 W
                Subthreshold Leakage = 0.00759719 W
                Subthreshold Leakage with power gating = 0.0039236 W
                Gate Leakage = 0.000278362 W
                Runtime Dynamic = 0.000300604 W

              RAS:
                Area = 0.0105732 mm^2
                Peak Dynamic = 0.0117602 W
                Subthreshold Leakage = 0.000932505 W
                Subthreshold Leakage with power gating = 0.000494733 W
                Gate Leakage = 4.63858e-05 W
                Runtime Dynamic = 0.000144017 W

          Instruction Buffer:
            Area = 11.1802 mm^2
            Peak Dynamic = 4028.05 W
            Subthreshold Leakage = 1.03354 W
            Subthreshold Leakage with power gating = 0.389491 W
            Gate Leakage = 0.119458 W
            Runtime Dynamic = 3.99853 W

          Instruction Decoder:
            Area = 29.7278 mm^2
            Peak Dynamic = 21.9846 W
            Subthreshold Leakage = 0.442943 W
            Subthreshold Leakage with power gating = 0.166104 W
            Gate Leakage = 0.0222493 W
            Runtime Dynamic = 0.0327352 W

      Renaming Unit:
        Area = 27.8071 mm^2
        Peak Dynamic = 2556.62 W
        Subthreshold Leakage = 0.87819 W
        Subthreshold Leakage with power gating = 0.437089 W
        Gate Leakage = 0.0906085 W
        Runtime Dynamic = 3.80877 W

          Int Front End RAT:
            Area = 19.3301 mm^2
            Peak Dynamic = 2465.83 W
            Subthreshold Leakage = 0.500294 W
            Subthreshold Leakage with power gating = 0.285168 W
            Gate Leakage = 0.0323898 W
            Runtime Dynamic = 3.66392 W

          FP Front End RAT:
            Area = 0.168486 mm^2
            Peak Dynamic = 78.3725 W
            Subthreshold Leakage = 0.0437281 W
            Subthreshold Leakage with power gating = 0.024925 W
            Gate Leakage = 0.00489731 W
            Runtime Dynamic = 0.122044 W

          Free List:
            Area = 7.5975 mm^2
            Peak Dynamic = 7.41375 W
            Subthreshold Leakage = 0.0190978 W
            Subthreshold Leakage with power gating = 0.00884518 W
            Gate Leakage = 0.00102434 W
            Runtime Dynamic = 0.0227998 W

      Load Store Unit:
        Area = 9.47562 mm^2
        Peak Dynamic = 2.04023 W
        Subthreshold Leakage = 0.886727 W
        Subthreshold Leakage with power gating = 0.394071 W
        Gate Leakage = 0.0841218 W
        Runtime Dynamic = 0.310542 W

          Data Cache:
            Area = 6.84535 mm^2
            Peak Dynamic = 1.69255 W
            Subthreshold Leakage = 0.527675 W
            Subthreshold Leakage with power gating = 0.25085 W
            Gate Leakage = 0.0279261 W
            Runtime Dynamic = 0.223141 W

          LoadQ:
            Area = 0.0836782 mm^2
            Peak Dynamic = 0.0147344 W
            Subthreshold Leakage = 0.00941961 W
            Subthreshold Leakage with power gating = 0.00536918 W
            Gate Leakage = 0.00059896 W
            Runtime Dynamic = 0.0147345 W

          StoreQ:
            Area = 0.322079 mm^2
            Peak Dynamic = 0.0363325 W
            Subthreshold Leakage = 0.0345621 W
            Subthreshold Leakage with power gating = 0.0197004 W
            Gate Leakage = 0.00329971 W
            Runtime Dynamic = 0.0726655 W

      Memory Management Unit:
        Area = 1.10051 mm^2
        Peak Dynamic = 2.70053 W
        Subthreshold Leakage = 0.372016 W
        Subthreshold Leakage with power gating = 0.150611 W
        Gate Leakage = 0.057119 W
        Runtime Dynamic = 0.0264352 W

          Itlb:
            Area = 0.301552 mm^2
            Peak Dynamic = 0.0381179 W
            Subthreshold Leakage = 0.0413758 W
            Subthreshold Leakage with power gating = 0.0235842 W
            Gate Leakage = 0.00393464 W
            Runtime Dynamic = 0.0127459 W

          Dtlb:
            Area = 0.0879726 mm^2
            Peak Dynamic = 0.0128945 W
            Subthreshold Leakage = 0.0155699 W
            Subthreshold Leakage with power gating = 0.00887485 W
            Gate Leakage = 0.00088729 W
            Runtime Dynamic = 0.0136885 W

      Execution Unit:
        Area = 1686.67 mm^2
        Peak Dynamic = 202643 W
        Subthreshold Leakage = 70.0229 W
        Subthreshold Leakage with power gating = 29.962 W
        Gate Leakage = 5.03755 W
        Runtime Dynamic = 360.14 W

          Register Files:
            Area = 111.819 mm^2
            Peak Dynamic = 0.585551 W
            Subthreshold Leakage = 1.55192 W
            Subthreshold Leakage with power gating = 0.587195 W
            Gate Leakage = 0.101689 W
            Runtime Dynamic = 0.15029 W

              Integer RF:
                Area = 74.0344 mm^2
                Peak Dynamic = 0.305441 W
                Subthreshold Leakage = 1.06477 W
                Subthreshold Leakage with power gating = 0.401522 W
                Gate Leakage = 0.0700135 W
                Runtime Dynamic = 0.134345 W

              Floating Point RF:
                Area = 37.7848 mm^2
                Peak Dynamic = 0.280109 W
                Subthreshold Leakage = 0.487147 W
                Subthreshold Leakage with power gating = 0.185673 W
                Gate Leakage = 0.0316755 W
                Runtime Dynamic = 0.0159449 W

          Instruction Scheduler:
            Area = 1561.2 mm^2
            Peak Dynamic = 202642 W
            Subthreshold Leakage = 59.5387 W
            Subthreshold Leakage with power gating = 26.0252 W
            Gate Leakage = 4.31521 W
            Runtime Dynamic = 358.243 W

              Instruction Window:
                Area = 242.241 mm^2
                Peak Dynamic = 491.03 W
                Subthreshold Leakage = 18.7871 W
                Subthreshold Leakage with power gating = 10.7075 W
                Gate Leakage = 1.23925 W
                Runtime Dynamic = 0.944636 W

              FP Instruction Window:
                Area = 0.328073 mm^2
                Peak Dynamic = 2.30959 W
                Subthreshold Leakage = 0.0225127 W
                Subthreshold Leakage with power gating = 0.0116864 W
                Gate Leakage = 0.00181534 W
                Runtime Dynamic = 0.0635982 W

              ROB:
                Area = 1318.63 mm^2
                Peak Dynamic = 202149 W
                Subthreshold Leakage = 40.7291 W
                Subthreshold Leakage with power gating = 15.306 W
                Gate Leakage = 3.07414 W
                Runtime Dynamic = 357.235 W

          Integer ALUs (Count: 96 ):
            Area = 7.53393 mm^2
            Peak Dynamic = 0.0342887 W
            Subthreshold Leakage = 6.43552 W
            Subthreshold Leakage with power gating = 2.41332 W
            Gate Leakage = 0.424466 W
            Runtime Dynamic = 0.13599 W

          Floating Point Units (FPUs) (Count: 2 ):
            Area = 4.6585 mm^2
            Peak Dynamic = 0.00787853 W
            Subthreshold Leakage = 0.994829 W
            Subthreshold Leakage with power gating = 0.373061 W
            Gate Leakage = 0.0656156 W
            Runtime Dynamic = 0.307499 W

          Complex ALUs (Mul/Div) (Count: 1 ):
            Area = 0.235435 mm^2
            Peak Dynamic = 0.00140097 W
            Subthreshold Leakage = 0.20111 W
            Subthreshold Leakage with power gating = 0.0754163 W
            Gate Leakage = 0.0132646 W
            Runtime Dynamic = 0.203789 W

          Results Broadcast Bus:
            Area Overhead = 0.510923 mm^2
            Peak Dynamic = 0.0558613 W
            Subthreshold Leakage = 0.985661 W
            Subthreshold Leakage with power gating = 0.369623 W
            Gate Leakage = 0.0650109 W
            Runtime Dynamic = 1.09938 W

*****************************************************************************************
Core:
      Area = 1776.72 mm^2
      Peak Dynamic = 209256 W
      Subthreshold Leakage = 76.417 W
      Subthreshold Leakage with power gating = 32.6025 W
      Gate Leakage = 5.63287 W
      Runtime Dynamic = 309.788 W

      Instruction Fetch Unit:
        Area = 47.2731 mm^2
        Peak Dynamic = 4051.41 W
        Subthreshold Leakage = 2.37932 W
        Subthreshold Leakage with power gating = 0.95452 W
        Gate Leakage = 0.23961 W
        Runtime Dynamic = 3.53158 W

          Instruction Cache:
            Area = 4.86613 mm^2
            Peak Dynamic = 0.735403 W
            Subthreshold Leakage = 0.486629 W
            Subthreshold Leakage with power gating = 0.22691 W
            Gate Leakage = 0.0421203 W
            Runtime Dynamic = 0.133643 W

          Branch Target Buffer:
            Area = 0.64954 mm^2
            Peak Dynamic = 0.177867 W
            Subthreshold Leakage = 0.0811682 W
            Subthreshold Leakage with power gating = 0.0435357 W
            Gate Leakage = 0.00272758 W
            Runtime Dynamic = 0.00241756 W

          Branch Predictor:
            Area = 0.138516 mm^2
            Peak Dynamic = 0.0597838 W
            Subthreshold Leakage = 0.0199703 W
            Subthreshold Leakage with power gating = 0.0103282 W
            Gate Leakage = 0.000757657 W
            Runtime Dynamic = 0.000826274 W

              Global Predictor:
                Area = 0.0435221 mm^2
                Peak Dynamic = 0.0168831 W
                Subthreshold Leakage = 0.00759719 W
                Subthreshold Leakage with power gating = 0.0039236 W
                Gate Leakage = 0.000278362 W
                Runtime Dynamic = 0.000246122 W

              Local Predictor:
              L1_Local Predictor:
                Area = 0.0257064 mm^2
                Peak Dynamic = 0.0142575 W
                Subthreshold Leakage = 0.00384344 W
                Subthreshold Leakage with power gating = 0.00198631 W
                Gate Leakage = 0.000154548 W
                Runtime Dynamic = 0.000212755 W

              L2_Local Predictor:
                Area = 0.0151917 mm^2
                Peak Dynamic = 0.00527447 W
                Subthreshold Leakage = 0.00181347 W
                Subthreshold Leakage with power gating = 0.000957045 W
                Gate Leakage = 8.00196e-05 W
                Runtime Dynamic = 8.14766e-05 W

              Chooser:
                Area = 0.0435221 mm^2
                Peak Dynamic = 0.0168831 W
                Subthreshold Leakage = 0.00759719 W
                Subthreshold Leakage with power gating = 0.0039236 W
                Gate Leakage = 0.000278362 W
                Runtime Dynamic = 0.000246122 W

              RAS:
                Area = 0.0105732 mm^2
                Peak Dynamic = 0.0117602 W
                Subthreshold Leakage = 0.000932505 W
                Subthreshold Leakage with power gating = 0.000494733 W
                Gate Leakage = 4.63858e-05 W
                Runtime Dynamic = 0.000121276 W

          Instruction Buffer:
            Area = 11.1802 mm^2
            Peak Dynamic = 4028.05 W
            Subthreshold Leakage = 1.03354 W
            Subthreshold Leakage with power gating = 0.389491 W
            Gate Leakage = 0.119458 W
            Runtime Dynamic = 3.36713 W

          Instruction Decoder:
            Area = 29.7278 mm^2
            Peak Dynamic = 21.9846 W
            Subthreshold Leakage = 0.442943 W
            Subthreshold Leakage with power gating = 0.166104 W
            Gate Leakage = 0.0222493 W
            Runtime Dynamic = 0.027566 W

      Renaming Unit:
        Area = 27.8071 mm^2
        Peak Dynamic = 2556.62 W
        Subthreshold Leakage = 0.87819 W
        Subthreshold Leakage with power gating = 0.437089 W
        Gate Leakage = 0.0906085 W
        Runtime Dynamic = 3.22667 W

          Int Front End RAT:
            Area = 19.3301 mm^2
            Peak Dynamic = 2465.83 W
            Subthreshold Leakage = 0.500294 W
            Subthreshold Leakage with power gating = 0.285168 W
            Gate Leakage = 0.0323898 W
            Runtime Dynamic = 3.08531 W

          FP Front End RAT:
            Area = 0.168486 mm^2
            Peak Dynamic = 78.3725 W
            Subthreshold Leakage = 0.0437281 W
            Subthreshold Leakage with power gating = 0.024925 W
            Gate Leakage = 0.00489731 W
            Runtime Dynamic = 0.122044 W

          Free List:
            Area = 7.5975 mm^2
            Peak Dynamic = 7.41375 W
            Subthreshold Leakage = 0.0190978 W
            Subthreshold Leakage with power gating = 0.00884518 W
            Gate Leakage = 0.00102434 W
            Runtime Dynamic = 0.0193134 W

      Load Store Unit:
        Area = 9.47562 mm^2
        Peak Dynamic = 1.91794 W
        Subthreshold Leakage = 0.886727 W
        Subthreshold Leakage with power gating = 0.394071 W
        Gate Leakage = 0.0841218 W
        Runtime Dynamic = 0.263358 W

          Data Cache:
            Area = 6.84535 mm^2
            Peak Dynamic = 1.62321 W
            Subthreshold Leakage = 0.527675 W
            Subthreshold Leakage with power gating = 0.25085 W
            Gate Leakage = 0.0279261 W
            Runtime Dynamic = 0.189266 W

          LoadQ:
            Area = 0.0836782 mm^2
            Peak Dynamic = 0.0124909 W
            Subthreshold Leakage = 0.00941961 W
            Subthreshold Leakage with power gating = 0.00536918 W
            Gate Leakage = 0.00059896 W
            Runtime Dynamic = 0.0124909 W

          StoreQ:
            Area = 0.322079 mm^2
            Peak Dynamic = 0.0308004 W
            Subthreshold Leakage = 0.0345621 W
            Subthreshold Leakage with power gating = 0.0197004 W
            Gate Leakage = 0.00329971 W
            Runtime Dynamic = 0.0616008 W

      Memory Management Unit:
        Area = 1.10051 mm^2
        Peak Dynamic = 2.66997 W
        Subthreshold Leakage = 0.372016 W
        Subthreshold Leakage with power gating = 0.150611 W
        Gate Leakage = 0.057119 W
        Runtime Dynamic = 0.0219118 W

          Itlb:
            Area = 0.301552 mm^2
            Peak Dynamic = 0.0320988 W
            Subthreshold Leakage = 0.0413758 W
            Subthreshold Leakage with power gating = 0.0235842 W
            Gate Leakage = 0.00393464 W
            Runtime Dynamic = 0.0103384 W

          Dtlb:
            Area = 0.0879726 mm^2
            Peak Dynamic = 0.0109311 W
            Subthreshold Leakage = 0.0155699 W
            Subthreshold Leakage with power gating = 0.00887485 W
            Gate Leakage = 0.00088729 W
            Runtime Dynamic = 0.0115726 W

      Execution Unit:
        Area = 1686.67 mm^2
        Peak Dynamic = 202643 W
        Subthreshold Leakage = 70.0229 W
        Subthreshold Leakage with power gating = 29.962 W
        Gate Leakage = 5.03755 W
        Runtime Dynamic = 302.745 W

          Register Files:
            Area = 111.819 mm^2
            Peak Dynamic = 0.564775 W
            Subthreshold Leakage = 1.55192 W
            Subthreshold Leakage with power gating = 0.587195 W
            Gate Leakage = 0.101689 W
            Runtime Dynamic = 0.126558 W

              Integer RF:
                Area = 74.0344 mm^2
                Peak Dynamic = 0.284666 W
                Subthreshold Leakage = 1.06477 W
                Subthreshold Leakage with power gating = 0.401522 W
                Gate Leakage = 0.0700135 W
                Runtime Dynamic = 0.113131 W

              Floating Point RF:
                Area = 37.7848 mm^2
                Peak Dynamic = 0.280109 W
                Subthreshold Leakage = 0.487147 W
                Subthreshold Leakage with power gating = 0.185673 W
                Gate Leakage = 0.0316755 W
                Runtime Dynamic = 0.0134271 W

          Instruction Scheduler:
            Area = 1561.2 mm^2
            Peak Dynamic = 202642 W
            Subthreshold Leakage = 59.5387 W
            Subthreshold Leakage with power gating = 26.0252 W
            Gate Leakage = 4.31521 W
            Runtime Dynamic = 301.049 W

              Instruction Window:
                Area = 242.241 mm^2
                Peak Dynamic = 491.03 W
                Subthreshold Leakage = 18.7871 W
                Subthreshold Leakage with power gating = 10.7075 W
                Gate Leakage = 1.23925 W
                Runtime Dynamic = 0.795469 W

              FP Instruction Window:
                Area = 0.328073 mm^2
                Peak Dynamic = 2.30959 W
                Subthreshold Leakage = 0.0225127 W
                Subthreshold Leakage with power gating = 0.0116864 W
                Gate Leakage = 0.00181534 W
                Runtime Dynamic = 0.0535554 W

              ROB:
                Area = 1318.63 mm^2
                Peak Dynamic = 202149 W
                Subthreshold Leakage = 40.7291 W
                Subthreshold Leakage with power gating = 15.306 W
                Gate Leakage = 3.07414 W
                Runtime Dynamic = 300.199 W

          Integer ALUs (Count: 96 ):
            Area = 7.53393 mm^2
            Peak Dynamic = 0.0286811 W
            Subthreshold Leakage = 6.43552 W
            Subthreshold Leakage with power gating = 2.41332 W
            Gate Leakage = 0.424466 W
            Runtime Dynamic = 0.130407 W

          Floating Point Units (FPUs) (Count: 2 ):
            Area = 4.6585 mm^2
            Peak Dynamic = 0.00787853 W
            Subthreshold Leakage = 0.994829 W
            Subthreshold Leakage with power gating = 0.373061 W
            Gate Leakage = 0.0656156 W
            Runtime Dynamic = 0.307499 W

          Complex ALUs (Mul/Div) (Count: 1 ):
            Area = 0.235435 mm^2
            Peak Dynamic = 0.00140097 W
            Subthreshold Leakage = 0.20111 W
            Subthreshold Leakage with power gating = 0.0754163 W
            Gate Leakage = 0.0132646 W
            Runtime Dynamic = 0.203789 W

          Results Broadcast Bus:
            Area Overhead = 0.510923 mm^2
            Peak Dynamic = 0.0522831 W
            Subthreshold Leakage = 0.985661 W
            Subthreshold Leakage with power gating = 0.369623 W
            Gate Leakage = 0.0650109 W
            Runtime Dynamic = 0.927896 W

*****************************************************************************************
Core:
      Area = 1776.72 mm^2
      Peak Dynamic = 209256 W
      Subthreshold Leakage = 76.417 W
      Subthreshold Leakage with power gating = 32.6025 W
      Gate Leakage = 5.63287 W
      Runtime Dynamic = 347.109 W

      Instruction Fetch Unit:
        Area = 47.2731 mm^2
        Peak Dynamic = 4051.55 W
        Subthreshold Leakage = 2.37932 W
        Subthreshold Leakage with power gating = 0.95452 W
        Gate Leakage = 0.23961 W
        Runtime Dynamic = 3.95657 W

          Instruction Cache:
            Area = 4.86613 mm^2
            Peak Dynamic = 0.823086 W
            Subthreshold Leakage = 0.486629 W
            Subthreshold Leakage with power gating = 0.22691 W
            Gate Leakage = 0.0421203 W
            Runtime Dynamic = 0.153429 W

          Branch Target Buffer:
            Area = 0.64954 mm^2
            Peak Dynamic = 0.177867 W
            Subthreshold Leakage = 0.0811682 W
            Subthreshold Leakage with power gating = 0.0435357 W
            Gate Leakage = 0.00272758 W
            Runtime Dynamic = 0.00275785 W

          Branch Predictor:
            Area = 0.138516 mm^2
            Peak Dynamic = 0.0597838 W
            Subthreshold Leakage = 0.0199703 W
            Subthreshold Leakage with power gating = 0.0103282 W
            Gate Leakage = 0.000757657 W
            Runtime Dynamic = 0.000939939 W

              Global Predictor:
                Area = 0.0435221 mm^2
                Peak Dynamic = 0.0168831 W
                Subthreshold Leakage = 0.00759719 W
                Subthreshold Leakage with power gating = 0.0039236 W
                Gate Leakage = 0.000278362 W
                Runtime Dynamic = 0.000280756 W

              Local Predictor:
              L1_Local Predictor:
                Area = 0.0257064 mm^2
                Peak Dynamic = 0.0142575 W
                Subthreshold Leakage = 0.00384344 W
                Subthreshold Leakage with power gating = 0.00198631 W
                Gate Leakage = 0.000154548 W
                Runtime Dynamic = 0.000242691 W

              L2_Local Predictor:
                Area = 0.0151917 mm^2
                Peak Dynamic = 0.00527447 W
                Subthreshold Leakage = 0.00181347 W
                Subthreshold Leakage with power gating = 0.000957045 W
                Gate Leakage = 8.00196e-05 W
                Runtime Dynamic = 9.29394e-05 W

              Chooser:
                Area = 0.0435221 mm^2
                Peak Dynamic = 0.0168831 W
                Subthreshold Leakage = 0.00759719 W
                Subthreshold Leakage with power gating = 0.0039236 W
                Gate Leakage = 0.000278362 W
                Runtime Dynamic = 0.000280756 W

              RAS:
                Area = 0.0105732 mm^2
                Peak Dynamic = 0.0117602 W
                Subthreshold Leakage = 0.000932505 W
                Subthreshold Leakage with power gating = 0.000494733 W
                Gate Leakage = 4.63858e-05 W
                Runtime Dynamic = 0.000135738 W

          Instruction Buffer:
            Area = 11.1802 mm^2
            Peak Dynamic = 4028.05 W
            Subthreshold Leakage = 1.03354 W
            Subthreshold Leakage with power gating = 0.389491 W
            Gate Leakage = 0.119458 W
            Runtime Dynamic = 3.76859 W

          Instruction Decoder:
            Area = 29.7278 mm^2
            Peak Dynamic = 21.9846 W
            Subthreshold Leakage = 0.442943 W
            Subthreshold Leakage with power gating = 0.166104 W
            Gate Leakage = 0.0222493 W
            Runtime Dynamic = 0.0308527 W

      Renaming Unit:
        Area = 27.8071 mm^2
        Peak Dynamic = 2556.62 W
        Subthreshold Leakage = 0.87819 W
        Subthreshold Leakage with power gating = 0.437089 W
        Gate Leakage = 0.0906085 W
        Runtime Dynamic = 3.59678 W

          Int Front End RAT:
            Area = 19.3301 mm^2
            Peak Dynamic = 2465.83 W
            Subthreshold Leakage = 0.500294 W
            Subthreshold Leakage with power gating = 0.285168 W
            Gate Leakage = 0.0323898 W
            Runtime Dynamic = 3.45321 W

          FP Front End RAT:
            Area = 0.168486 mm^2
            Peak Dynamic = 78.3725 W
            Subthreshold Leakage = 0.0437281 W
            Subthreshold Leakage with power gating = 0.024925 W
            Gate Leakage = 0.00489731 W
            Runtime Dynamic = 0.122044 W

          Free List:
            Area = 7.5975 mm^2
            Peak Dynamic = 7.41375 W
            Subthreshold Leakage = 0.0190978 W
            Subthreshold Leakage with power gating = 0.00884518 W
            Gate Leakage = 0.00102434 W
            Runtime Dynamic = 0.0215301 W

      Load Store Unit:
        Area = 9.47562 mm^2
        Peak Dynamic = 1.99569 W
        Subthreshold Leakage = 0.886727 W
        Subthreshold Leakage with power gating = 0.394071 W
        Gate Leakage = 0.0841218 W
        Runtime Dynamic = 0.292929 W

          Data Cache:
            Area = 6.84535 mm^2
            Peak Dynamic = 1.6673 W
            Subthreshold Leakage = 0.527675 W
            Subthreshold Leakage with power gating = 0.25085 W
            Gate Leakage = 0.0279261 W
            Runtime Dynamic = 0.210375 W

          LoadQ:
            Area = 0.0836782 mm^2
            Peak Dynamic = 0.0139173 W
            Subthreshold Leakage = 0.00941961 W
            Subthreshold Leakage with power gating = 0.00536918 W
            Gate Leakage = 0.00059896 W
            Runtime Dynamic = 0.0139174 W

          StoreQ:
            Area = 0.322079 mm^2
            Peak Dynamic = 0.0343177 W
            Subthreshold Leakage = 0.0345621 W
            Subthreshold Leakage with power gating = 0.0197004 W
            Gate Leakage = 0.00329971 W
            Runtime Dynamic = 0.0686359 W

      Memory Management Unit:
        Area = 1.10051 mm^2
        Peak Dynamic = 2.6894 W
        Subthreshold Leakage = 0.372016 W
        Subthreshold Leakage with power gating = 0.150611 W
        Gate Leakage = 0.057119 W
        Runtime Dynamic = 0.0247679 W

          Itlb:
            Area = 0.301552 mm^2
            Peak Dynamic = 0.0359259 W
            Subthreshold Leakage = 0.0413758 W
            Subthreshold Leakage with power gating = 0.0235842 W
            Gate Leakage = 0.00393464 W
            Runtime Dynamic = 0.011869 W

          Dtlb:
            Area = 0.0879726 mm^2
            Peak Dynamic = 0.0121794 W
            Subthreshold Leakage = 0.0155699 W
            Subthreshold Leakage with power gating = 0.00887485 W
            Gate Leakage = 0.00088729 W
            Runtime Dynamic = 0.0128981 W

      Execution Unit:
        Area = 1686.67 mm^2
        Peak Dynamic = 202643 W
        Subthreshold Leakage = 70.0229 W
        Subthreshold Leakage with power gating = 29.962 W
        Gate Leakage = 5.03755 W
        Runtime Dynamic = 339.238 W

          Register Files:
            Area = 111.819 mm^2
            Peak Dynamic = 0.578008 W
            Subthreshold Leakage = 1.55192 W
            Subthreshold Leakage with power gating = 0.587195 W
            Gate Leakage = 0.101689 W
            Runtime Dynamic = 0.141648 W

              Integer RF:
                Area = 74.0344 mm^2
                Peak Dynamic = 0.297899 W
                Subthreshold Leakage = 1.06477 W
                Subthreshold Leakage with power gating = 0.401522 W
                Gate Leakage = 0.0700135 W
                Runtime Dynamic = 0.12662 W

              Floating Point RF:
                Area = 37.7848 mm^2
                Peak Dynamic = 0.280109 W
                Subthreshold Leakage = 0.487147 W
                Subthreshold Leakage with power gating = 0.185673 W
                Gate Leakage = 0.0316755 W
                Runtime Dynamic = 0.0150281 W

          Instruction Scheduler:
            Area = 1561.2 mm^2
            Peak Dynamic = 202642 W
            Subthreshold Leakage = 59.5387 W
            Subthreshold Leakage with power gating = 26.0252 W
            Gate Leakage = 4.31521 W
            Runtime Dynamic = 337.414 W

              Instruction Window:
                Area = 242.241 mm^2
                Peak Dynamic = 491.03 W
                Subthreshold Leakage = 18.7871 W
                Subthreshold Leakage with power gating = 10.7075 W
                Gate Leakage = 1.23925 W
                Runtime Dynamic = 0.890314 W

              FP Instruction Window:
                Area = 0.328073 mm^2
                Peak Dynamic = 2.30959 W
                Subthreshold Leakage = 0.0225127 W
                Subthreshold Leakage with power gating = 0.0116864 W
                Gate Leakage = 0.00181534 W
                Runtime Dynamic = 0.059941 W

              ROB:
                Area = 1318.63 mm^2
                Peak Dynamic = 202149 W
                Subthreshold Leakage = 40.7291 W
                Subthreshold Leakage with power gating = 15.306 W
                Gate Leakage = 3.07414 W
                Runtime Dynamic = 336.464 W

          Integer ALUs (Count: 96 ):
            Area = 7.53393 mm^2
            Peak Dynamic = 0.0322528 W
            Subthreshold Leakage = 6.43552 W
            Subthreshold Leakage with power gating = 2.41332 W
            Gate Leakage = 0.424466 W
            Runtime Dynamic = 0.133957 W

          Floating Point Units (FPUs) (Count: 2 ):
            Area = 4.6585 mm^2
            Peak Dynamic = 0.00787853 W
            Subthreshold Leakage = 0.994829 W
            Subthreshold Leakage with power gating = 0.373061 W
            Gate Leakage = 0.0656156 W
            Runtime Dynamic = 0.307499 W

          Complex ALUs (Mul/Div) (Count: 1 ):
            Area = 0.235435 mm^2
            Peak Dynamic = 0.00140097 W
            Subthreshold Leakage = 0.20111 W
            Subthreshold Leakage with power gating = 0.0754163 W
            Gate Leakage = 0.0132646 W
            Runtime Dynamic = 0.203789 W

          Results Broadcast Bus:
            Area Overhead = 0.510923 mm^2
            Peak Dynamic = 0.0545622 W
            Subthreshold Leakage = 0.985661 W
            Subthreshold Leakage with power gating = 0.369623 W
            Gate Leakage = 0.0650109 W
            Runtime Dynamic = 1.03693 W

*****************************************************************************************
Core:
      Area = 1776.72 mm^2
      Peak Dynamic = 209256 W
      Subthreshold Leakage = 76.417 W
      Subthreshold Leakage with power gating = 32.6025 W
      Gate Leakage = 5.63287 W
      Runtime Dynamic = 292.518 W

      Instruction Fetch Unit:
        Area = 47.2731 mm^2
        Peak Dynamic = 4051.35 W
        Subthreshold Leakage = 2.37932 W
        Subthreshold Leakage with power gating = 0.95452 W
        Gate Leakage = 0.23961 W
        Runtime Dynamic = 3.33494 W

          Instruction Cache:
            Area = 4.86613 mm^2
            Peak Dynamic = 0.694834 W
            Subthreshold Leakage = 0.486629 W
            Subthreshold Leakage with power gating = 0.22691 W
            Gate Leakage = 0.0421203 W
            Runtime Dynamic = 0.124485 W

          Branch Target Buffer:
            Area = 0.64954 mm^2
            Peak Dynamic = 0.177867 W
            Subthreshold Leakage = 0.0811682 W
            Subthreshold Leakage with power gating = 0.0435357 W
            Gate Leakage = 0.00272758 W
            Runtime Dynamic = 0.00226 W

          Branch Predictor:
            Area = 0.138516 mm^2
            Peak Dynamic = 0.0597838 W
            Subthreshold Leakage = 0.0199703 W
            Subthreshold Leakage with power gating = 0.0103282 W
            Gate Leakage = 0.000757657 W
            Runtime Dynamic = 0.000773549 W

              Global Predictor:
                Area = 0.0435221 mm^2
                Peak Dynamic = 0.0168831 W
                Subthreshold Leakage = 0.00759719 W
                Subthreshold Leakage with power gating = 0.0039236 W
                Gate Leakage = 0.000278362 W
                Runtime Dynamic = 0.000230052 W

              Local Predictor:
              L1_Local Predictor:
                Area = 0.0257064 mm^2
                Peak Dynamic = 0.0142575 W
                Subthreshold Leakage = 0.00384344 W
                Subthreshold Leakage with power gating = 0.00198631 W
                Gate Leakage = 0.000154548 W
                Runtime Dynamic = 0.000198856 W

              L2_Local Predictor:
                Area = 0.0151917 mm^2
                Peak Dynamic = 0.00527447 W
                Subthreshold Leakage = 0.00181347 W
                Subthreshold Leakage with power gating = 0.000957045 W
                Gate Leakage = 8.00196e-05 W
                Runtime Dynamic = 7.61496e-05 W

              Chooser:
                Area = 0.0435221 mm^2
                Peak Dynamic = 0.0168831 W
                Subthreshold Leakage = 0.00759719 W
                Subthreshold Leakage with power gating = 0.0039236 W
                Gate Leakage = 0.000278362 W
                Runtime Dynamic = 0.000230052 W

              RAS:
                Area = 0.0105732 mm^2
                Peak Dynamic = 0.0117602 W
                Subthreshold Leakage = 0.000932505 W
                Subthreshold Leakage with power gating = 0.000494733 W
                Gate Leakage = 4.63858e-05 W
                Runtime Dynamic = 0.000114588 W

          Instruction Buffer:
            Area = 11.1802 mm^2
            Peak Dynamic = 4028.05 W
            Subthreshold Leakage = 1.03354 W
            Subthreshold Leakage with power gating = 0.389491 W
            Gate Leakage = 0.119458 W
            Runtime Dynamic = 3.18137 W

          Instruction Decoder:
            Area = 29.7278 mm^2
            Peak Dynamic = 21.9846 W
            Subthreshold Leakage = 0.442943 W
            Subthreshold Leakage with power gating = 0.166104 W
            Gate Leakage = 0.0222493 W
            Runtime Dynamic = 0.0260453 W

      Renaming Unit:
        Area = 27.8071 mm^2
        Peak Dynamic = 2556.62 W
        Subthreshold Leakage = 0.87819 W
        Subthreshold Leakage with power gating = 0.437089 W
        Gate Leakage = 0.0906085 W
        Runtime Dynamic = 3.05543 W

          Int Front End RAT:
            Area = 19.3301 mm^2
            Peak Dynamic = 2465.83 W
            Subthreshold Leakage = 0.500294 W
            Subthreshold Leakage with power gating = 0.285168 W
            Gate Leakage = 0.0323898 W
            Runtime Dynamic = 2.91509 W

          FP Front End RAT:
            Area = 0.168486 mm^2
            Peak Dynamic = 78.3725 W
            Subthreshold Leakage = 0.0437281 W
            Subthreshold Leakage with power gating = 0.024925 W
            Gate Leakage = 0.00489731 W
            Runtime Dynamic = 0.122044 W

          Free List:
            Area = 7.5975 mm^2
            Peak Dynamic = 7.41375 W
            Subthreshold Leakage = 0.0190978 W
            Subthreshold Leakage with power gating = 0.00884518 W
            Gate Leakage = 0.00102434 W
            Runtime Dynamic = 0.0182878 W

      Load Store Unit:
        Area = 9.47562 mm^2
        Peak Dynamic = 1.88197 W
        Subthreshold Leakage = 0.886727 W
        Subthreshold Leakage with power gating = 0.394071 W
        Gate Leakage = 0.0841218 W
        Runtime Dynamic = 0.249337 W

          Data Cache:
            Area = 6.84535 mm^2
            Peak Dynamic = 1.60281 W
            Subthreshold Leakage = 0.527675 W
            Subthreshold Leakage with power gating = 0.25085 W
            Gate Leakage = 0.0279261 W
            Runtime Dynamic = 0.17916 W

          LoadQ:
            Area = 0.0836782 mm^2
            Peak Dynamic = 0.0118308 W
            Subthreshold Leakage = 0.00941961 W
            Subthreshold Leakage with power gating = 0.00536918 W
            Gate Leakage = 0.00059896 W
            Runtime Dynamic = 0.0118307 W

          StoreQ:
            Area = 0.322079 mm^2
            Peak Dynamic = 0.0291728 W
            Subthreshold Leakage = 0.0345621 W
            Subthreshold Leakage with power gating = 0.0197004 W
            Gate Leakage = 0.00329971 W
            Runtime Dynamic = 0.0583452 W

      Memory Management Unit:
        Area = 1.10051 mm^2
        Peak Dynamic = 2.66098 W
        Subthreshold Leakage = 0.372016 W
        Subthreshold Leakage with power gating = 0.150611 W
        Gate Leakage = 0.057119 W
        Runtime Dynamic = 0.020563 W

          Itlb:
            Area = 0.301552 mm^2
            Peak Dynamic = 0.030328 W
            Subthreshold Leakage = 0.0413758 W
            Subthreshold Leakage with power gating = 0.0235842 W
            Gate Leakage = 0.00393464 W
            Runtime Dynamic = 0.00963004 W

          Dtlb:
            Area = 0.0879726 mm^2
            Peak Dynamic = 0.0103535 W
            Subthreshold Leakage = 0.0155699 W
            Subthreshold Leakage with power gating = 0.00887485 W
            Gate Leakage = 0.00088729 W
            Runtime Dynamic = 0.0109322 W

      Execution Unit:
        Area = 1686.67 mm^2
        Peak Dynamic = 202643 W
        Subthreshold Leakage = 70.0229 W
        Subthreshold Leakage with power gating = 29.962 W
        Gate Leakage = 5.03755 W
        Runtime Dynamic = 285.858 W

          Register Files:
            Area = 111.819 mm^2
            Peak Dynamic = 0.558688 W
            Subthreshold Leakage = 1.55192 W
            Subthreshold Leakage with power gating = 0.587195 W
            Gate Leakage = 0.101689 W
            Runtime Dynamic = 0.119576 W

              Integer RF:
                Area = 74.0344 mm^2
                Peak Dynamic = 0.278578 W
                Subthreshold Leakage = 1.06477 W
                Subthreshold Leakage with power gating = 0.401522 W
                Gate Leakage = 0.0700135 W
                Runtime Dynamic = 0.10689 W

              Floating Point RF:
                Area = 37.7848 mm^2
                Peak Dynamic = 0.280109 W
                Subthreshold Leakage = 0.487147 W
                Subthreshold Leakage with power gating = 0.185673 W
                Gate Leakage = 0.0316755 W
                Runtime Dynamic = 0.0126864 W

          Instruction Scheduler:
            Area = 1561.2 mm^2
            Peak Dynamic = 202642 W
            Subthreshold Leakage = 59.5387 W
            Subthreshold Leakage with power gating = 26.0252 W
            Gate Leakage = 4.31521 W
            Runtime Dynamic = 284.221 W

              Instruction Window:
                Area = 242.241 mm^2
                Peak Dynamic = 491.03 W
                Subthreshold Leakage = 18.7871 W
                Subthreshold Leakage with power gating = 10.7075 W
                Gate Leakage = 1.23925 W
                Runtime Dynamic = 0.751586 W

              FP Instruction Window:
                Area = 0.328073 mm^2
                Peak Dynamic = 2.30959 W
                Subthreshold Leakage = 0.0225127 W
                Subthreshold Leakage with power gating = 0.0116864 W
                Gate Leakage = 0.00181534 W
                Runtime Dynamic = 0.050601 W

              ROB:
                Area = 1318.63 mm^2
                Peak Dynamic = 202149 W
                Subthreshold Leakage = 40.7291 W
                Subthreshold Leakage with power gating = 15.306 W
                Gate Leakage = 3.07414 W
                Runtime Dynamic = 283.419 W

          Integer ALUs (Count: 96 ):
            Area = 7.53393 mm^2
            Peak Dynamic = 0.0270381 W
            Subthreshold Leakage = 6.43552 W
            Subthreshold Leakage with power gating = 2.41332 W
            Gate Leakage = 0.424466 W
            Runtime Dynamic = 0.128765 W

          Floating Point Units (FPUs) (Count: 2 ):
            Area = 4.6585 mm^2
            Peak Dynamic = 0.00787853 W
            Subthreshold Leakage = 0.994829 W
            Subthreshold Leakage with power gating = 0.373061 W
            Gate Leakage = 0.0656156 W
            Runtime Dynamic = 0.307499 W

          Complex ALUs (Mul/Div) (Count: 1 ):
            Area = 0.235435 mm^2
            Peak Dynamic = 0.00140097 W
            Subthreshold Leakage = 0.20111 W
            Subthreshold Leakage with power gating = 0.0754163 W
            Gate Leakage = 0.0132646 W
            Runtime Dynamic = 0.203789 W

          Results Broadcast Bus:
            Area Overhead = 0.510923 mm^2
            Peak Dynamic = 0.0512347 W
            Subthreshold Leakage = 0.985661 W
            Subthreshold Leakage with power gating = 0.369623 W
            Gate Leakage = 0.0650109 W
            Runtime Dynamic = 0.877448 W

*****************************************************************************************
Core:
      Area = 1776.72 mm^2
      Peak Dynamic = 209256 W
      Subthreshold Leakage = 76.417 W
      Subthreshold Leakage with power gating = 32.6025 W
      Gate Leakage = 5.63287 W
      Runtime Dynamic = 344.844 W

      Instruction Fetch Unit:
        Area = 47.2731 mm^2
        Peak Dynamic = 4051.54 W
        Subthreshold Leakage = 2.37932 W
        Subthreshold Leakage with power gating = 0.95452 W
        Gate Leakage = 0.23961 W
        Runtime Dynamic = 3.93078 W

          Instruction Cache:
            Area = 4.86613 mm^2
            Peak Dynamic = 0.817771 W
            Subthreshold Leakage = 0.486629 W
            Subthreshold Leakage with power gating = 0.22691 W
            Gate Leakage = 0.0421203 W
            Runtime Dynamic = 0.152222 W

          Branch Target Buffer:
            Area = 0.64954 mm^2
            Peak Dynamic = 0.177867 W
            Subthreshold Leakage = 0.0811682 W
            Subthreshold Leakage with power gating = 0.0435357 W
            Gate Leakage = 0.00272758 W
            Runtime Dynamic = 0.00273725 W

          Branch Predictor:
            Area = 0.138516 mm^2
            Peak Dynamic = 0.0597838 W
            Subthreshold Leakage = 0.0199703 W
            Subthreshold Leakage with power gating = 0.0103282 W
            Gate Leakage = 0.000757657 W
            Runtime Dynamic = 0.000933025 W

              Global Predictor:
                Area = 0.0435221 mm^2
                Peak Dynamic = 0.0168831 W
                Subthreshold Leakage = 0.00759719 W
                Subthreshold Leakage with power gating = 0.0039236 W
                Gate Leakage = 0.000278362 W
                Runtime Dynamic = 0.000278649 W

              Local Predictor:
              L1_Local Predictor:
                Area = 0.0257064 mm^2
                Peak Dynamic = 0.0142575 W
                Subthreshold Leakage = 0.00384344 W
                Subthreshold Leakage with power gating = 0.00198631 W
                Gate Leakage = 0.000154548 W
                Runtime Dynamic = 0.000240868 W

              L2_Local Predictor:
                Area = 0.0151917 mm^2
                Peak Dynamic = 0.00527447 W
                Subthreshold Leakage = 0.00181347 W
                Subthreshold Leakage with power gating = 0.000957045 W
                Gate Leakage = 8.00196e-05 W
                Runtime Dynamic = 9.22399e-05 W

              Chooser:
                Area = 0.0435221 mm^2
                Peak Dynamic = 0.0168831 W
                Subthreshold Leakage = 0.00759719 W
                Subthreshold Leakage with power gating = 0.0039236 W
                Gate Leakage = 0.000278362 W
                Runtime Dynamic = 0.000278649 W

              RAS:
                Area = 0.0105732 mm^2
                Peak Dynamic = 0.0117602 W
                Subthreshold Leakage = 0.000932505 W
                Subthreshold Leakage with power gating = 0.000494733 W
                Gate Leakage = 4.63858e-05 W
                Runtime Dynamic = 0.000134859 W

          Instruction Buffer:
            Area = 11.1802 mm^2
            Peak Dynamic = 4028.05 W
            Subthreshold Leakage = 1.03354 W
            Subthreshold Leakage with power gating = 0.389491 W
            Gate Leakage = 0.119458 W
            Runtime Dynamic = 3.74423 W

          Instruction Decoder:
            Area = 29.7278 mm^2
            Peak Dynamic = 21.9846 W
            Subthreshold Leakage = 0.442943 W
            Subthreshold Leakage with power gating = 0.166104 W
            Gate Leakage = 0.0222493 W
            Runtime Dynamic = 0.0306533 W

      Renaming Unit:
        Area = 27.8071 mm^2
        Peak Dynamic = 2556.62 W
        Subthreshold Leakage = 0.87819 W
        Subthreshold Leakage with power gating = 0.437089 W
        Gate Leakage = 0.0906085 W
        Runtime Dynamic = 3.57433 W

          Int Front End RAT:
            Area = 19.3301 mm^2
            Peak Dynamic = 2465.83 W
            Subthreshold Leakage = 0.500294 W
            Subthreshold Leakage with power gating = 0.285168 W
            Gate Leakage = 0.0323898 W
            Runtime Dynamic = 3.43089 W

          FP Front End RAT:
            Area = 0.168486 mm^2
            Peak Dynamic = 78.3725 W
            Subthreshold Leakage = 0.0437281 W
            Subthreshold Leakage with power gating = 0.024925 W
            Gate Leakage = 0.00489731 W
            Runtime Dynamic = 0.122044 W

          Free List:
            Area = 7.5975 mm^2
            Peak Dynamic = 7.41375 W
            Subthreshold Leakage = 0.0190978 W
            Subthreshold Leakage with power gating = 0.00884518 W
            Gate Leakage = 0.00102434 W
            Runtime Dynamic = 0.0213957 W

      Load Store Unit:
        Area = 9.47562 mm^2
        Peak Dynamic = 1.99098 W
        Subthreshold Leakage = 0.886727 W
        Subthreshold Leakage with power gating = 0.394071 W
        Gate Leakage = 0.0841218 W
        Runtime Dynamic = 0.291395 W

          Data Cache:
            Area = 6.84535 mm^2
            Peak Dynamic = 1.66463 W
            Subthreshold Leakage = 0.527675 W
            Subthreshold Leakage with power gating = 0.25085 W
            Gate Leakage = 0.0279261 W
            Runtime Dynamic = 0.209356 W

          LoadQ:
            Area = 0.0836782 mm^2
            Peak Dynamic = 0.0138308 W
            Subthreshold Leakage = 0.00941961 W
            Subthreshold Leakage with power gating = 0.00536918 W
            Gate Leakage = 0.00059896 W
            Runtime Dynamic = 0.0138307 W

          StoreQ:
            Area = 0.322079 mm^2
            Peak Dynamic = 0.0341044 W
            Subthreshold Leakage = 0.0345621 W
            Subthreshold Leakage with power gating = 0.0197004 W
            Gate Leakage = 0.00329971 W
            Runtime Dynamic = 0.0682082 W

      Memory Management Unit:
        Area = 1.10051 mm^2
        Peak Dynamic = 2.68822 W
        Subthreshold Leakage = 0.372016 W
        Subthreshold Leakage with power gating = 0.150611 W
        Gate Leakage = 0.057119 W
        Runtime Dynamic = 0.0246011 W

          Itlb:
            Area = 0.301552 mm^2
            Peak Dynamic = 0.0356939 W
            Subthreshold Leakage = 0.0413758 W
            Subthreshold Leakage with power gating = 0.0235842 W
            Gate Leakage = 0.00393464 W
            Runtime Dynamic = 0.0117757 W

          Dtlb:
            Area = 0.0879726 mm^2
            Peak Dynamic = 0.0121038 W
            Subthreshold Leakage = 0.0155699 W
            Subthreshold Leakage with power gating = 0.00887485 W
            Gate Leakage = 0.00088729 W
            Runtime Dynamic = 0.0128246 W

      Execution Unit:
        Area = 1686.67 mm^2
        Peak Dynamic = 202643 W
        Subthreshold Leakage = 70.0229 W
        Subthreshold Leakage with power gating = 29.962 W
        Gate Leakage = 5.03755 W
        Runtime Dynamic = 337.023 W

          Register Files:
            Area = 111.819 mm^2
            Peak Dynamic = 0.577214 W
            Subthreshold Leakage = 1.55192 W
            Subthreshold Leakage with power gating = 0.587195 W
            Gate Leakage = 0.101689 W
            Runtime Dynamic = 0.140732 W

              Integer RF:
                Area = 74.0344 mm^2
                Peak Dynamic = 0.297105 W
                Subthreshold Leakage = 1.06477 W
                Subthreshold Leakage with power gating = 0.401522 W
                Gate Leakage = 0.0700135 W
                Runtime Dynamic = 0.125801 W

              Floating Point RF:
                Area = 37.7848 mm^2
                Peak Dynamic = 0.280109 W
                Subthreshold Leakage = 0.487147 W
                Subthreshold Leakage with power gating = 0.185673 W
                Gate Leakage = 0.0316755 W
                Runtime Dynamic = 0.0149309 W

          Instruction Scheduler:
            Area = 1561.2 mm^2
            Peak Dynamic = 202642 W
            Subthreshold Leakage = 59.5387 W
            Subthreshold Leakage with power gating = 26.0252 W
            Gate Leakage = 4.31521 W
            Runtime Dynamic = 335.207 W

              Instruction Window:
                Area = 242.241 mm^2
                Peak Dynamic = 491.03 W
                Subthreshold Leakage = 18.7871 W
                Subthreshold Leakage with power gating = 10.7075 W
                Gate Leakage = 1.23925 W
                Runtime Dynamic = 0.88456 W

              FP Instruction Window:
                Area = 0.328073 mm^2
                Peak Dynamic = 2.30959 W
                Subthreshold Leakage = 0.0225127 W
                Subthreshold Leakage with power gating = 0.0116864 W
                Gate Leakage = 0.00181534 W
                Runtime Dynamic = 0.0595536 W

              ROB:
                Area = 1318.63 mm^2
                Peak Dynamic = 202149 W
                Subthreshold Leakage = 40.7291 W
                Subthreshold Leakage with power gating = 15.306 W
                Gate Leakage = 3.07414 W
                Runtime Dynamic = 334.263 W

          Integer ALUs (Count: 96 ):
            Area = 7.53393 mm^2
            Peak Dynamic = 0.0320385 W
            Subthreshold Leakage = 6.43552 W
            Subthreshold Leakage with power gating = 2.41332 W
            Gate Leakage = 0.424466 W
            Runtime Dynamic = 0.133741 W

          Floating Point Units (FPUs) (Count: 2 ):
            Area = 4.6585 mm^2
            Peak Dynamic = 0.00787853 W
            Subthreshold Leakage = 0.994829 W
            Subthreshold Leakage with power gating = 0.373061 W
            Gate Leakage = 0.0656156 W
            Runtime Dynamic = 0.307499 W

          Complex ALUs (Mul/Div) (Count: 1 ):
            Area = 0.235435 mm^2
            Peak Dynamic = 0.00140097 W
            Subthreshold Leakage = 0.20111 W
            Subthreshold Leakage with power gating = 0.0754163 W
            Gate Leakage = 0.0132646 W
            Runtime Dynamic = 0.203789 W

          Results Broadcast Bus:
            Area Overhead = 0.510923 mm^2
            Peak Dynamic = 0.0544254 W
            Subthreshold Leakage = 0.985661 W
            Subthreshold Leakage with power gating = 0.369623 W
            Gate Leakage = 0.0650109 W
            Runtime Dynamic = 1.03031 W

*****************************************************************************************
Core:
      Area = 1776.72 mm^2
      Peak Dynamic = 209256 W
      Subthreshold Leakage = 76.417 W
      Subthreshold Leakage with power gating = 32.6025 W
      Gate Leakage = 5.63287 W
      Runtime Dynamic = 415.713 W

      Instruction Fetch Unit:
        Area = 47.2731 mm^2
        Peak Dynamic = 4051.8 W
        Subthreshold Leakage = 2.37932 W
        Subthreshold Leakage with power gating = 0.95452 W
        Gate Leakage = 0.23961 W
        Runtime Dynamic = 4.73778 W

          Instruction Cache:
            Area = 4.86613 mm^2
            Peak Dynamic = 0.984265 W
            Subthreshold Leakage = 0.486629 W
            Subthreshold Leakage with power gating = 0.22691 W
            Gate Leakage = 0.0421203 W
            Runtime Dynamic = 0.189802 W

          Branch Target Buffer:
            Area = 0.64954 mm^2
            Peak Dynamic = 0.177867 W
            Subthreshold Leakage = 0.0811682 W
            Subthreshold Leakage with power gating = 0.0435357 W
            Gate Leakage = 0.00272758 W
            Runtime Dynamic = 0.00338356 W

          Branch Predictor:
            Area = 0.138516 mm^2
            Peak Dynamic = 0.0597838 W
            Subthreshold Leakage = 0.0199703 W
            Subthreshold Leakage with power gating = 0.0103282 W
            Gate Leakage = 0.000757657 W
            Runtime Dynamic = 0.00114891 W

              Global Predictor:
                Area = 0.0435221 mm^2
                Peak Dynamic = 0.0168831 W
                Subthreshold Leakage = 0.00759719 W
                Subthreshold Leakage with power gating = 0.0039236 W
                Gate Leakage = 0.000278362 W
                Runtime Dynamic = 0.000344432 W

              Local Predictor:
              L1_Local Predictor:
                Area = 0.0257064 mm^2
                Peak Dynamic = 0.0142575 W
                Subthreshold Leakage = 0.00384344 W
[...]
            Gate Leakage = 0.119458 W
            Runtime Dynamic = 3.63611 W

          Instruction Decoder:
            Area = 29.7278 mm^2
            Peak Dynamic = 21.9846 W
            Subthreshold Leakage = 0.442943 W
            Subthreshold Leakage with power gating = 0.166104 W
            Gate Leakage = 0.0222493 W
            Runtime Dynamic = 0.0297681 W

      Renaming Unit:
        Area = 27.8071 mm^2
        Peak Dynamic = 2556.62 W
        Subthreshold Leakage = 0.87819 W
        Subthreshold Leakage with power gating = 0.437089 W
        Gate Leakage = 0.0906085 W
        Runtime Dynamic = 3.47465 W

          Int Front End RAT:
            Area = 19.3301 mm^2
            Peak Dynamic = 2465.83 W
            Subthreshold Leakage = 0.500294 W
            Subthreshold Leakage with power gating = 0.285168 W
            Gate Leakage = 0.0323898 W
            Runtime Dynamic = 3.3318 W

          FP Front End RAT:
            Area = 0.168486 mm^2
            Peak Dynamic = 78.3725 W
            Subthreshold Leakage = 0.0437281 W
            Subthreshold Leakage with power gating = 0.024925 W
            Gate Leakage = 0.00489731 W
            Runtime Dynamic = 0.122044 W

          Free List:
            Area = 7.5975 mm^2
            Peak Dynamic = 7.41375 W
            Subthreshold Leakage = 0.0190978 W
            Subthreshold Leakage with power gating = 0.00884518 W
            Gate Leakage = 0.00102434 W
            Runtime Dynamic = 0.0207986 W

      Load Store Unit:
        Area = 9.47562 mm^2
        Peak Dynamic = 1.97004 W
        Subthreshold Leakage = 0.886727 W
        Subthreshold Leakage with power gating = 0.394071 W
        Gate Leakage = 0.0841218 W
        Runtime Dynamic = 0.283161 W

          Data Cache:
            Area = 6.84535 mm^2
            Peak Dynamic = 1.65275 W
            Subthreshold Leakage = 0.527675 W
            Subthreshold Leakage with power gating = 0.25085 W
            Gate Leakage = 0.0279261 W
            Runtime Dynamic = 0.203399 W

          LoadQ:
            Area = 0.0836782 mm^2
            Peak Dynamic = 0.0134466 W
            Subthreshold Leakage = 0.00941961 W
            Subthreshold Leakage with power gating = 0.00536918 W
            Gate Leakage = 0.00059896 W
            Runtime Dynamic = 0.0134467 W

          StoreQ:
            Area = 0.322079 mm^2
            Peak Dynamic = 0.0331571 W
            Subthreshold Leakage = 0.0345621 W
            Subthreshold Leakage with power gating = 0.0197004 W
            Gate Leakage = 0.00329971 W
            Runtime Dynamic = 0.0663143 W

      Memory Management Unit:
        Area = 1.10051 mm^2
        Peak Dynamic = 2.68299 W
        Subthreshold Leakage = 0.372016 W
        Subthreshold Leakage with power gating = 0.150611 W
        Gate Leakage = 0.057119 W
        Runtime Dynamic = 0.0238147 W

          Itlb:
            Area = 0.301552 mm^2
            Peak Dynamic = 0.0346631 W
            Subthreshold Leakage = 0.0413758 W
            Subthreshold Leakage with power gating = 0.0235842 W
            Gate Leakage = 0.00393464 W
            Runtime Dynamic = 0.011364 W

          Dtlb:
            Area = 0.0879726 mm^2
            Peak Dynamic = 0.0117676 W
            Subthreshold Leakage = 0.0155699 W
            Subthreshold Leakage with power gating = 0.00887485 W
            Gate Leakage = 0.00088729 W
            Runtime Dynamic = 0.0124499 W

      Execution Unit:
        Area = 1686.67 mm^2
        Peak Dynamic = 202643 W
        Subthreshold Leakage = 70.0229 W
        Subthreshold Leakage with power gating = 29.962 W
        Gate Leakage = 5.03755 W
        Runtime Dynamic = 327.195 W

          Register Files:
            Area = 111.819 mm^2
            Peak Dynamic = 0.573641 W
            Subthreshold Leakage = 1.55192 W
            Subthreshold Leakage with power gating = 0.587195 W
            Gate Leakage = 0.101689 W
            Runtime Dynamic = 0.136668 W

              Integer RF:
                Area = 74.0344 mm^2
                Peak Dynamic = 0.293532 W
                Subthreshold Leakage = 1.06477 W
                Subthreshold Leakage with power gating = 0.401522 W
                Gate Leakage = 0.0700135 W
                Runtime Dynamic = 0.122168 W

              Floating Point RF:
                Area = 37.7848 mm^2
                Peak Dynamic = 0.280109 W
                Subthreshold Leakage = 0.487147 W
                Subthreshold Leakage with power gating = 0.185673 W
                Gate Leakage = 0.0316755 W
                Runtime Dynamic = 0.0144997 W

          Instruction Scheduler:
            Area = 1561.2 mm^2
            Peak Dynamic = 202642 W
            Subthreshold Leakage = 59.5387 W
            Subthreshold Leakage with power gating = 26.0252 W
            Gate Leakage = 4.31521 W
            Runtime Dynamic = 325.413 W

              Instruction Window:
                Area = 242.241 mm^2
                Peak Dynamic = 491.03 W
                Subthreshold Leakage = 18.7871 W
                Subthreshold Leakage with power gating = 10.7075 W
                Gate Leakage = 1.23925 W
                Runtime Dynamic = 0.859015 W

              FP Instruction Window:
                Area = 0.328073 mm^2
                Peak Dynamic = 2.30959 W
                Subthreshold Leakage = 0.0225127 W
                Subthreshold Leakage with power gating = 0.0116864 W
                Gate Leakage = 0.00181534 W
                Runtime Dynamic = 0.0578338 W

              ROB:
                Area = 1318.63 mm^2
                Peak Dynamic = 202149 W
                Subthreshold Leakage = 40.7291 W
                Subthreshold Leakage with power gating = 15.306 W
                Gate Leakage = 3.07414 W
                Runtime Dynamic = 324.496 W

          Integer ALUs (Count: 96 ):
            Area = 7.53393 mm^2
            Peak Dynamic = 0.0310741 W
            Subthreshold Leakage = 6.43552 W
            Subthreshold Leakage with power gating = 2.41332 W
            Gate Leakage = 0.424466 W
            Runtime Dynamic = 0.132785 W

          Floating Point Units (FPUs) (Count: 2 ):
            Area = 4.6585 mm^2
            Peak Dynamic = 0.00787853 W
            Subthreshold Leakage = 0.994829 W
            Subthreshold Leakage with power gating = 0.373061 W
            Gate Leakage = 0.0656156 W
            Runtime Dynamic = 0.307499 W

          Complex ALUs (Mul/Div) (Count: 1 ):
            Area = 0.235435 mm^2
            Peak Dynamic = 0.00140097 W
            Subthreshold Leakage = 0.20111 W
            Subthreshold Leakage with power gating = 0.0754163 W
            Gate Leakage = 0.0132646 W
            Runtime Dynamic = 0.203789 W

          Results Broadcast Bus:
            Area Overhead = 0.510923 mm^2
            Peak Dynamic = 0.0538101 W
            Subthreshold Leakage = 0.985661 W
            Subthreshold Leakage with power gating = 0.369623 W
            Gate Leakage = 0.0650109 W
            Runtime Dynamic = 1.00095 W

*****************************************************************************************
Core:
      Area = 1776.72 mm^2
      Peak Dynamic = 209256 W
      Subthreshold Leakage = 76.417 W
      Subthreshold Leakage with power gating = 32.6025 W
      Gate Leakage = 5.63287 W
      Runtime Dynamic = 358.951 W

      Instruction Fetch Unit:
        Area = 47.2731 mm^2
        Peak Dynamic = 4051.59 W
        Subthreshold Leakage = 2.37932 W
        Subthreshold Leakage with power gating = 0.95452 W
        Gate Leakage = 0.23961 W
        Runtime Dynamic = 4.09142 W

          Instruction Cache:
            Area = 4.86613 mm^2
            Peak Dynamic = 0.850908 W
            Subthreshold Leakage = 0.486629 W
            Subthreshold Leakage with power gating = 0.22691 W
            Gate Leakage = 0.0421203 W
            Runtime Dynamic = 0.159711 W

          Branch Target Buffer:
            Area = 0.64954 mm^2
            Peak Dynamic = 0.177867 W
            Subthreshold Leakage = 0.0811682 W
            Subthreshold Leakage with power gating = 0.0435357 W
            Gate Leakage = 0.00272758 W
            Runtime Dynamic = 0.00286584 W

          Branch Predictor:
            Area = 0.138516 mm^2
            Peak Dynamic = 0.0597838 W
            Subthreshold Leakage = 0.0199703 W
            Subthreshold Leakage with power gating = 0.0103282 W
            Gate Leakage = 0.000757657 W
            Runtime Dynamic = 0.000975824 W

              Global Predictor:
                Area = 0.0435221 mm^2
                Peak Dynamic = 0.0168831 W
                Subthreshold Leakage = 0.00759719 W
                Subthreshold Leakage with power gating = 0.0039236 W
                Gate Leakage = 0.000278362 W
                Runtime Dynamic = 0.000291688 W

              Local Predictor:
              L1_Local Predictor:
                Area = 0.0257064 mm^2
                Peak Dynamic = 0.0142575 W
                Subthreshold Leakage = 0.00384344 W
                Subthreshold Leakage with power gating = 0.00198631 W
                Gate Leakage = 0.000154548 W
                Runtime Dynamic = 0.000252124 W

              L2_Local Predictor:
                Area = 0.0151917 mm^2
                Peak Dynamic = 0.00527447 W
                Subthreshold Leakage = 0.00181347 W
                Subthreshold Leakage with power gating = 0.000957045 W
                Gate Leakage = 8.00196e-05 W
                Runtime Dynamic = 9.65427e-05 W

              Chooser:
                Area = 0.0435221 mm^2
                Peak Dynamic = 0.0168831 W
                Subthreshold Leakage = 0.00759719 W
                Subthreshold Leakage with power gating = 0.0039236 W
                Gate Leakage = 0.000278362 W
                Runtime Dynamic = 0.000291688 W

              RAS:
                Area = 0.0105732 mm^2
                Peak Dynamic = 0.0117602 W
                Subthreshold Leakage = 0.000932505 W
                Subthreshold Leakage with power gating = 0.000494733 W
                Gate Leakage = 4.63858e-05 W
                Runtime Dynamic = 0.000140323 W

          Instruction Buffer:
            Area = 11.1802 mm^2
            Peak Dynamic = 4028.05 W
            Subthreshold Leakage = 1.03354 W
            Subthreshold Leakage with power gating = 0.389491 W
            Gate Leakage = 0.119458 W
            Runtime Dynamic = 3.89597 W

          Instruction Decoder:
            Area = 29.7278 mm^2
            Peak Dynamic = 21.9846 W
            Subthreshold Leakage = 0.442943 W
            Subthreshold Leakage with power gating = 0.166104 W
            Gate Leakage = 0.0222493 W
            Runtime Dynamic = 0.0318956 W

      Renaming Unit:
        Area = 27.8071 mm^2
        Peak Dynamic = 2556.62 W
        Subthreshold Leakage = 0.87819 W
        Subthreshold Leakage with power gating = 0.437089 W
        Gate Leakage = 0.0906085 W
        Runtime Dynamic = 3.71422 W

          Int Front End RAT:
            Area = 19.3301 mm^2
            Peak Dynamic = 2465.83 W
            Subthreshold Leakage = 0.500294 W
            Subthreshold Leakage with power gating = 0.285168 W
            Gate Leakage = 0.0323898 W
            Runtime Dynamic = 3.56994 W

          FP Front End RAT:
            Area = 0.168486 mm^2
            Peak Dynamic = 78.3725 W
            Subthreshold Leakage = 0.0437281 W
            Subthreshold Leakage with power gating = 0.024925 W
            Gate Leakage = 0.00489731 W
            Runtime Dynamic = 0.122044 W

          Free List:
            Area = 7.5975 mm^2
            Peak Dynamic = 7.41375 W
            Subthreshold Leakage = 0.0190978 W
            Subthreshold Leakage with power gating = 0.00884518 W
            Gate Leakage = 0.00102434 W
            Runtime Dynamic = 0.0222335 W

      Load Store Unit:
        Area = 9.47562 mm^2
        Peak Dynamic = 2.02037 W
        Subthreshold Leakage = 0.886727 W
        Subthreshold Leakage with power gating = 0.394071 W
        Gate Leakage = 0.0841218 W
        Runtime Dynamic = 0.302147 W

          Data Cache:
            Area = 6.84535 mm^2
            Peak Dynamic = 1.68129 W
            Subthreshold Leakage = 0.527675 W
            Subthreshold Leakage with power gating = 0.25085 W
            Gate Leakage = 0.0279261 W
            Runtime Dynamic = 0.216908 W

          LoadQ:
            Area = 0.0836782 mm^2
            Peak Dynamic = 0.0143701 W
            Subthreshold Leakage = 0.00941961 W
            Subthreshold Leakage with power gating = 0.00536918 W
            Gate Leakage = 0.00059896 W
            Runtime Dynamic = 0.0143701 W

          StoreQ:
            Area = 0.322079 mm^2
            Peak Dynamic = 0.0354341 W
            Subthreshold Leakage = 0.0345621 W
            Subthreshold Leakage with power gating = 0.0197004 W
            Gate Leakage = 0.00329971 W
            Runtime Dynamic = 0.0708684 W

      Memory Management Unit:
        Area = 1.10051 mm^2
        Peak Dynamic = 2.69557 W
        Subthreshold Leakage = 0.372016 W
        Subthreshold Leakage with power gating = 0.150611 W
        Gate Leakage = 0.057119 W
        Runtime Dynamic = 0.0256348 W

          Itlb:
            Area = 0.301552 mm^2
            Peak Dynamic = 0.0371403 W
            Subthreshold Leakage = 0.0413758 W
            Subthreshold Leakage with power gating = 0.0235842 W
            Gate Leakage = 0.00393464 W
            Runtime Dynamic = 0.0123549 W

          Dtlb:
            Area = 0.0879726 mm^2
            Peak Dynamic = 0.0125757 W
            Subthreshold Leakage = 0.0155699 W
            Subthreshold Leakage with power gating = 0.00887485 W
            Gate Leakage = 0.00088729 W
            Runtime Dynamic = 0.0132791 W

      Execution Unit:
        Area = 1686.67 mm^2
        Peak Dynamic = 202643 W
        Subthreshold Leakage = 70.0229 W
        Subthreshold Leakage with power gating = 29.962 W
        Gate Leakage = 5.03755 W
        Runtime Dynamic = 350.817 W

          Register Files:
            Area = 111.819 mm^2
            Peak Dynamic = 0.582243 W
            Subthreshold Leakage = 1.55192 W
            Subthreshold Leakage with power gating = 0.587195 W
            Gate Leakage = 0.101689 W
            Runtime Dynamic = 0.146435 W

              Integer RF:
                Area = 74.0344 mm^2
                Peak Dynamic = 0.302133 W
                Subthreshold Leakage = 1.06477 W
                Subthreshold Leakage with power gating = 0.401522 W
                Gate Leakage = 0.0700135 W
                Runtime Dynamic = 0.130899 W

              Floating Point RF:
                Area = 37.7848 mm^2
                Peak Dynamic = 0.280109 W
                Subthreshold Leakage = 0.487147 W
                Subthreshold Leakage with power gating = 0.185673 W
                Gate Leakage = 0.0316755 W
                Runtime Dynamic = 0.015536 W

          Instruction Scheduler:
            Area = 1561.2 mm^2
            Peak Dynamic = 202642 W
            Subthreshold Leakage = 59.5387 W
            Subthreshold Leakage with power gating = 26.0252 W
            Gate Leakage = 4.31521 W
            Runtime Dynamic = 348.953 W

              Instruction Window:
                Area = 242.241 mm^2
                Peak Dynamic = 491.03 W
                Subthreshold Leakage = 18.7871 W
                Subthreshold Leakage with power gating = 10.7075 W
                Gate Leakage = 1.23925 W
                Runtime Dynamic = 0.920407 W

              FP Instruction Window:
                Area = 0.328073 mm^2
                Peak Dynamic = 2.30959 W
                Subthreshold Leakage = 0.0225127 W
                Subthreshold Leakage with power gating = 0.0116864 W
                Gate Leakage = 0.00181534 W
                Runtime Dynamic = 0.061967 W

              ROB:
                Area = 1318.63 mm^2
                Peak Dynamic = 202149 W
                Subthreshold Leakage = 40.7291 W
                Subthreshold Leakage with power gating = 15.306 W
                Gate Leakage = 3.07414 W
                Runtime Dynamic = 347.971 W

          Integer ALUs (Count: 96 ):
            Area = 7.53393 mm^2
            Peak Dynamic = 0.0333958 W
            Subthreshold Leakage = 6.43552 W
            Subthreshold Leakage with power gating = 2.41332 W
            Gate Leakage = 0.424466 W
            Runtime Dynamic = 0.135083 W

          Floating Point Units (FPUs) (Count: 2 ):
            Area = 4.6585 mm^2
            Peak Dynamic = 0.00787853 W
            Subthreshold Leakage = 0.994829 W
            Subthreshold Leakage with power gating = 0.373061 W
            Gate Leakage = 0.0656156 W
            Runtime Dynamic = 0.307499 W

          Complex ALUs (Mul/Div) (Count: 1 ):
            Area = 0.235435 mm^2
            Peak Dynamic = 0.00140097 W
            Subthreshold Leakage = 0.20111 W
            Subthreshold Leakage with power gating = 0.0754163 W
            Gate Leakage = 0.0132646 W
            Runtime Dynamic = 0.203789 W

          Results Broadcast Bus:
            Area Overhead = 0.510923 mm^2
            Peak Dynamic = 0.0552915 W
            Subthreshold Leakage = 0.985661 W
            Subthreshold Leakage with power gating = 0.369623 W
            Gate Leakage = 0.0650109 W
            Runtime Dynamic = 1.07152 W

*****************************************************************************************
L2
      Area = 22.2273 mm^2
      Peak Dynamic = 0.403955 W
      Subthreshold Leakage = 2.01996 W
      Subthreshold Leakage with power gating = 0.908099 W
      Gate Leakage = 0.0518439 W
      Runtime Dynamic = 0.103419 W

*****************************************************************************************
L2
      Area = 22.2273 mm^2
      Peak Dynamic = 0.329935 W
      Subthreshold Leakage = 2.01996 W
      Subthreshold Leakage with power gating = 0.908099 W
      Gate Leakage = 0.0518439 W
      Runtime Dynamic = 0.0475145 W

*****************************************************************************************
L2
      Area = 22.2273 mm^2
      Peak Dynamic = 0.381926 W
      Subthreshold Leakage = 2.01996 W
      Subthreshold Leakage with power gating = 0.908099 W
      Gate Leakage = 0.0518439 W
      Runtime Dynamic = 0.0956637 W

*****************************************************************************************
L2
      Area = 22.2273 mm^2
      Peak Dynamic = 0.313453 W
      Subthreshold Leakage = 2.01996 W
      Subthreshold Leakage with power gating = 0.908099 W
      Gate Leakage = 0.0518439 W
      Runtime Dynamic = 0.0457599 W

*****************************************************************************************
L3
      Area = 61.9075 mm^2
      Peak Dynamic = 0.698237 W
      Subthreshold Leakage = 6.80085 W
      Subthreshold Leakage with power gating = 3.32364 W
      Gate Leakage = 0.0484137 W
      Runtime Dynamic = 0.195658 W

*****************************************************************************************
L3
      Area = 61.9075 mm^2
      Peak Dynamic = 0.661272 W
      Subthreshold Leakage = 6.80085 W
      Subthreshold Leakage with power gating = 3.32364 W
      Gate Leakage = 0.0484137 W
      Runtime Dynamic = 0.187059 W

*****************************************************************************************
BUSES
      Area = 31.9601 mm^2
      Peak Dynamic = 75.0166 W
      Subthreshold Leakage = 0.894086 W
      Subthreshold Leakage with power gating = 0.335282 W
      Gate Leakage = 0.0857398 W
      Runtime Dynamic = 8.23718 W

      Bus: 
        Area = 31.9601 mm^2
        Peak Dynamic = 75.0166 W
        Subthreshold Leakage = 0.894086 W
        Subthreshold Leakage with power gating = 0.335282 W
        Gate Leakage = 0.0857398 W
        Runtime Dynamic = 8.23718 W

*****************************************************************************************
